
     RDKit          3D

 16 16  0  0  0  0  0  0  0  0999 V2000
   -1.4675    0.7076    0.1979 C   0  0  0  0  0  0  0  0  0  0  0  0
   -0.0671    0.8769    0.7197 C   0  0  0  0  0  0  0  0  0  0  0  0
   -1.5118   -0.7061   -0.3125 C   0  0  0  0  0  0  0  0  0  0  0  0
    2.1947   -0.1585   -0.1471 C   0  0  0  0  0  0  0  0  0  0  0  0
    0.7062   -0.1298   -0.0379 C   0  0  0  0  0  0  0  0  0  0  0  0
   -0.0948   -1.0181   -0.6176 C   0  0  0  0  0  0  0  0  0  0  0  0
   -2.1898    0.8800    1.0105 H   0  0  0  0  0  0  0  0  0  0  0  0
   -1.6287    1.3805   -0.6846 H   0  0  0  0  0  0  0  0  0  0  0  0
    0.2769    1.9071    0.4954 H   0  0  0  0  0  0  0  0  0  0  0  0
    0.0290    0.6817    1.8002 H   0  0  0  0  0  0  0  0  0  0  0  0
   -2.1742   -0.7455   -1.2026 H   0  0  0  0  0  0  0  0  0  0  0  0
   -1.9508   -1.3910    0.4601 H   0  0  0  0  0  0  0  0  0  0  0  0
    2.5615    0.8885   -0.2450 H   0  0  0  0  0  0  0  0  0  0  0  0
    2.5696   -0.5672    0.8069 H   0  0  0  0  0  0  0  0  0  0  0  0
    2.5038   -0.7514   -1.0145 H   0  0  0  0  0  0  0  0  0  0  0  0
    0.2430   -1.8547   -1.2289 H   0  0  0  0  0  0  0  0  0  0  0  0
  1  2  1  0
  1  3  1  0
  1  7  1  0
  1  8  1  0
  2  5  1  0
  2  9  1  0
  2 10  1  0
  3  6  1  0
  3 11  1  0
  3 12  1  0
  4  5  1  0
  4 13  1  0
  4 14  1  0
  4 15  1  0
  5  6  2  0
  6 16  1  0
M  END
