
     RDKit          3D

 20 21  0  0  0  0  0  0  0  0999 V2000
    2.5997   -0.3938    0.1981 C   0  0  0  0  0  0  0  0  0  0  0  0
   -2.7157   -0.7045    0.0456 C   0  0  0  0  0  0  0  0  0  0  0  0
   -1.5238    0.1848   -0.1057 C   0  0  0  0  0  0  0  0  0  0  0  0
   -0.2554   -0.1795    0.0299 C   0  0  0  0  0  0  0  0  0  0  0  0
    0.5761    0.9684   -0.1950 C   0  0  0  0  0  0  0  0  0  0  0  0
    1.9036    0.9172   -0.1278 C   0  0  0  0  0  0  0  0  0  0  0  0
    1.6646   -1.5797    0.4273 C   0  0  0  0  0  0  0  0  0  0  0  0
   -1.5543    1.6209   -0.4320 C   0  0  0  0  0  0  0  0  0  0  0  0
    0.3286   -1.4822    0.3493 C   0  0  0  0  0  0  0  0  0  0  0  0
   -0.3069    2.0871   -0.4853 C   0  0  0  0  0  0  0  0  0  0  0  0
    3.2860   -0.6440   -0.6376 H   0  0  0  0  0  0  0  0  0  0  0  0
    3.2126   -0.2480    1.1120 H   0  0  0  0  0  0  0  0  0  0  0  0
   -2.7379   -1.1303    1.0706 H   0  0  0  0  0  0  0  0  0  0  0  0
   -2.6639   -1.5299   -0.6949 H   0  0  0  0  0  0  0  0  0  0  0  0
   -3.6487   -0.1273   -0.1242 H   0  0  0  0  0  0  0  0  0  0  0  0
    2.4920    1.8084   -0.3048 H   0  0  0  0  0  0  0  0  0  0  0  0
    2.1047   -2.5403    0.6632 H   0  0  0  0  0  0  0  0  0  0  0  0
   -0.0198    3.1071   -0.7041 H   0  0  0  0  0  0  0  0  0  0  0  0
   -0.2986   -2.3482    0.5190 H   0  0  0  0  0  0  0  0  0  0  0  0
   -2.4430    2.2139   -0.6035 H   0  0  0  0  0  0  0  0  0  0  0  0
  1  6  1  0
  1  7  1  0
  1 11  1  0
  1 12  1  0
  2  3  1  0
  2 13  1  0
  2 14  1  0
  2 15  1  0
  3  4  2  0
  3  8  1  0
  4  5  1  0
  4  9  1  0
  5  6  2  0
  5 10  1  0
  6 16  1  0
  7  9  2  0
  7 17  1  0
  8 10  2  0
  8 20  1  0
  9 19  1  0
 10 18  1  0
M  END
