
     RDKit          3D

 20 21  0  0  0  0  0  0  0  0999 V2000
    2.5860   -0.4089    0.1764 C   0  0  0  0  0  0  0  0  0  0  0  0
   -2.7088   -0.6897    0.0448 C   0  0  0  0  0  0  0  0  0  0  0  0
   -1.5346    0.2000   -0.1072 C   0  0  0  0  0  0  0  0  0  0  0  0
   -0.2949   -0.1938    0.0242 C   0  0  0  0  0  0  0  0  0  0  0  0
    0.5582    0.9592   -0.1972 C   0  0  0  0  0  0  0  0  0  0  0  0
    1.8680    0.8397   -0.1233 C   0  0  0  0  0  0  0  0  0  0  0  0
    1.6684   -1.5567    0.3943 C   0  0  0  0  0  0  0  0  0  0  0  0
   -1.5550    1.6284   -0.4208 C   0  0  0  0  0  0  0  0  0  0  0  0
    0.3512   -1.4615    0.3254 C   0  0  0  0  0  0  0  0  0  0  0  0
   -0.3231    2.1079   -0.4809 C   0  0  0  0  0  0  0  0  0  0  0  0
    3.3251   -0.6529   -0.6221 H   0  0  0  0  0  0  0  0  0  0  0  0
    3.1311   -0.2564    1.1541 H   0  0  0  0  0  0  0  0  0  0  0  0
   -2.7162   -1.0331    1.1056 H   0  0  0  0  0  0  0  0  0  0  0  0
   -2.5897   -1.5854   -0.5961 H   0  0  0  0  0  0  0  0  0  0  0  0
   -3.6289   -0.1152   -0.2220 H   0  0  0  0  0  0  0  0  0  0  0  0
    2.4518    1.7273   -0.2964 H   0  0  0  0  0  0  0  0  0  0  0  0
    2.1314   -2.5078    0.6194 H   0  0  0  0  0  0  0  0  0  0  0  0
   -0.0280    3.1269   -0.6933 H   0  0  0  0  0  0  0  0  0  0  0  0
   -0.2326   -2.3427    0.4971 H   0  0  0  0  0  0  0  0  0  0  0  0
   -2.4596    2.2146   -0.5821 H   0  0  0  0  0  0  0  0  0  0  0  0
  1  6  1  0
  1  7  1  0
  1 11  1  0
  1 12  1  0
  2  3  1  0
  2 13  1  0
  2 14  1  0
  2 15  1  0
  3  4  2  0
  3  8  1  0
  4  5  1  0
  4  9  1  0
  5  6  2  0
  5 10  1  0
  6 16  1  0
  7  9  2  0
  7 17  1  0
  8 10  2  0
  8 20  1  0
  9 19  1  0
 10 18  1  0
M  END
