
     RDKit          3D

 17 17  0  0  0  0  0  0  0  0999 V2000
   -0.2984    1.0766    0.6530 C   0  0  0  0  0  0  0  0  0  0  0  0
    0.9923    1.1482   -0.1339 C   0  0  0  0  0  0  0  0  0  0  0  0
   -2.4038   -0.4292    0.1145 C   0  0  0  0  0  0  0  0  0  0  0  0
   -0.9464   -0.1317    0.0789 C   0  0  0  0  0  0  0  0  0  0  0  0
    1.2634   -0.3026   -0.3161 C   0  0  0  0  0  0  0  0  0  0  0  0
   -0.0446   -0.9262   -0.4796 C   0  0  0  0  0  0  0  0  0  0  0  0
    2.4435   -0.9032   -0.3277 C   0  0  0  0  0  0  0  0  0  0  0  0
    0.8650    1.6949   -1.0815 H   0  0  0  0  0  0  0  0  0  0  0  0
    1.7850    1.6657    0.4382 H   0  0  0  0  0  0  0  0  0  0  0  0
   -0.9127    1.9843    0.6003 H   0  0  0  0  0  0  0  0  0  0  0  0
    0.0000    0.8070    1.6910 H   0  0  0  0  0  0  0  0  0  0  0  0
   -2.6508   -1.0162    1.0148 H   0  0  0  0  0  0  0  0  0  0  0  0
   -2.7142   -1.0296   -0.7723 H   0  0  0  0  0  0  0  0  0  0  0  0
   -2.9768    0.5295    0.1671 H   0  0  0  0  0  0  0  0  0  0  0  0
   -0.2172   -1.8855   -0.9820 H   0  0  0  0  0  0  0  0  0  0  0  0
    3.3343   -0.3098   -0.1933 H   0  0  0  0  0  0  0  0  0  0  0  0
    2.4815   -1.9722   -0.4716 H   0  0  0  0  0  0  0  0  0  0  0  0
  1  2  1  0
  1  4  1  0
  1 10  1  0
  1 11  1  0
  2  5  1  0
  2  8  1  0
  2  9  1  0
  3  4  1  0
  3 12  1  0
  3 13  1  0
  3 14  1  0
  4  6  2  0
  5  6  1  0
  5  7  2  0
  6 15  1  0
  7 16  1  0
  7 17  1  0
M  END
