
     RDKit          3D

 32 32  0  0  0  0  0  0  0  0999 V2000
   -1.3680    0.4667   -0.2136 C   0  0  0  0  0  0  0  0  0  0  0  0
   -0.2448   -0.4082    0.4143 C   0  0  0  0  0  0  0  0  0  0  0  0
   -0.3910   -1.8695   -0.0426 C   0  0  0  0  0  0  0  0  0  0  0  0
   -1.4260    1.8538    0.4732 C   0  0  0  0  0  0  0  0  0  0  0  0
   -1.7330   -2.4368    0.4213 C   0  0  0  0  0  0  0  0  0  0  0  0
    3.5902    0.2434    0.3454 C   0  0  0  0  0  0  0  0  0  0  0  0
   -2.1827    2.8941   -0.3548 C   0  0  0  0  0  0  0  0  0  0  0  0
    4.0698   -0.3211   -0.9889 C   0  0  0  0  0  0  0  0  0  0  0  0
   -2.7271   -0.2137   -0.1429 C   0  0  0  0  0  0  0  0  0  0  0  0
    1.1282    0.1070    0.0367 C   0  0  0  0  0  0  0  0  0  0  0  0
   -2.8798   -1.5323    0.0621 C   0  0  0  0  0  0  0  0  0  0  0  0
    2.2272   -0.2812    0.7022 C   0  0  0  0  0  0  0  0  0  0  0  0
   -1.1355    0.6068   -1.2934 H   0  0  0  0  0  0  0  0  0  0  0  0
   -0.3448   -0.3709    1.5239 H   0  0  0  0  0  0  0  0  0  0  0  0
   -0.3978    2.2450    0.6298 H   0  0  0  0  0  0  0  0  0  0  0  0
   -1.8997    1.7635    1.4755 H   0  0  0  0  0  0  0  0  0  0  0  0
    0.4240   -2.4932    0.3854 H   0  0  0  0  0  0  0  0  0  0  0  0
   -0.3248   -1.9293   -1.1521 H   0  0  0  0  0  0  0  0  0  0  0  0
   -1.7188   -2.5715    1.5244 H   0  0  0  0  0  0  0  0  0  0  0  0
   -1.8919   -3.4320   -0.0459 H   0  0  0  0  0  0  0  0  0  0  0  0
    3.5685    1.3539    0.3003 H   0  0  0  0  0  0  0  0  0  0  0  0
    4.3097   -0.0545    1.1380 H   0  0  0  0  0  0  0  0  0  0  0  0
   -3.2552    2.6284   -0.4479 H   0  0  0  0  0  0  0  0  0  0  0  0
   -1.7352    2.9832   -1.3674 H   0  0  0  0  0  0  0  0  0  0  0  0
   -2.1160    3.8829    0.1463 H   0  0  0  0  0  0  0  0  0  0  0  0
    4.0942   -1.4312   -0.9505 H   0  0  0  0  0  0  0  0  0  0  0  0
    5.0944    0.0501   -1.2018 H   0  0  0  0  0  0  0  0  0  0  0  0
    3.3992    0.0025   -1.8131 H   0  0  0  0  0  0  0  0  0  0  0  0
   -3.8819   -1.9506    0.0585 H   0  0  0  0  0  0  0  0  0  0  0  0
   -3.6150    0.3604   -0.3856 H   0  0  0  0  0  0  0  0  0  0  0  0
    2.1384   -0.9688    1.5390 H   0  0  0  0  0  0  0  0  0  0  0  0
    1.2252    0.8232   -0.7757 H   0  0  0  0  0  0  0  0  0  0  0  0
  1  4  1  0
  1 13  1  0
  1  9  1  0
  1  2  1  0
  2 10  1  0
  2 14  1  0
  2  3  1  0
  3 17  1  0
  3 18  1  0
  3  5  1  0
  4 15  1  0
  4 16  1  0
  4  7  1  0
  5 11  1  0
  5 19  1  0
  5 20  1  0
  6 12  1  0
  6 21  1  0
  6 22  1  0
  6  8  1  0
  7 23  1  0
  7 24  1  0
  7 25  1  0
  8 26  1  0
  8 27  1  0
  8 28  1  0
  9 30  1  0
  9 11  2  0
 10 12  2  3
 10 32  1  0
 11 29  1  0
 12 31  1  0
M  END
