
     RDKit          3D

 21 22  0  0  0  0  0  0  0  0999 V2000
   -0.0321   -0.6297   -0.4677 C   0  0  0  0  0  0  0  0  0  0  0  0
   -1.1483   -1.0567    0.4523 C   0  0  0  0  0  0  0  0  0  0  0  0
   -2.2035   -0.0041    0.2006 C   0  0  0  0  0  0  0  0  0  0  0  0
   -1.5496    1.1704   -0.4940 C   0  0  0  0  0  0  0  0  0  0  0  0
    1.2891   -1.2340   -0.2340 C   0  0  0  0  0  0  0  0  0  0  0  0
   -0.1023    0.8569   -0.2140 C   0  0  0  0  0  0  0  0  0  0  0  0
    2.3665   -0.3405    0.1863 C   0  0  0  0  0  0  0  0  0  0  0  0
    0.9458    1.5560    0.1708 C   0  0  0  0  0  0  0  0  0  0  0  0
    2.2507    0.9600    0.3868 C   0  0  0  0  0  0  0  0  0  0  0  0
   -0.4056   -0.8261   -1.4981 H   0  0  0  0  0  0  0  0  0  0  0  0
   -2.5688    0.3453    1.1923 H   0  0  0  0  0  0  0  0  0  0  0  0
   -3.0112   -0.4478   -0.4047 H   0  0  0  0  0  0  0  0  0  0  0  0
   -0.7694   -1.0429    1.4893 H   0  0  0  0  0  0  0  0  0  0  0  0
   -1.4762   -2.0644    0.1203 H   0  0  0  0  0  0  0  0  0  0  0  0
   -1.8713    2.1296   -0.0881 H   0  0  0  0  0  0  0  0  0  0  0  0
   -1.7324    1.0506   -1.5814 H   0  0  0  0  0  0  0  0  0  0  0  0
    1.6282   -1.8212   -1.1386 H   0  0  0  0  0  0  0  0  0  0  0  0
    1.1505   -2.0453    0.5403 H   0  0  0  0  0  0  0  0  0  0  0  0
    3.3482   -0.7660    0.3513 H   0  0  0  0  0  0  0  0  0  0  0  0
    3.0761    1.5916    0.7011 H   0  0  0  0  0  0  0  0  0  0  0  0
    0.8158    2.6184    0.3291 H   0  0  0  0  0  0  0  0  0  0  0  0
  1  2  1  0
  1  6  1  0
  1  5  1  0
  1 10  1  0
  2  3  1  0
  2 13  1  0
  2 14  1  0
  3  4  1  0
  3 11  1  0
  3 12  1  0
  4  6  1  0
  4 15  1  0
  4 16  1  0
  5  7  1  0
  5 17  1  0
  5 18  1  0
  6  8  2  0
  7  9  2  0
  7 19  1  0
  8  9  1  0
  8 21  1  0
  9 20  1  0
M  END
