
     RDKit          3D

 22 23  0  0  0  0  0  0  0  0999 V2000
   -0.2998   -0.5570   -0.7108 C   0  0  0  0  0  0  0  0  0  0  0  0
   -1.5279   -1.3234   -0.6382 C   0  0  0  0  0  0  0  0  0  0  0  0
    1.1012    1.2816   -0.3203 C   0  0  0  0  0  0  0  0  0  0  0  0
    3.0891   -0.0291    0.8404 C   0  0  0  0  0  0  0  0  0  0  0  0
   -0.3451    0.8424   -0.1306 C   0  0  0  0  0  0  0  0  0  0  0  0
    1.7541    0.0118    0.1912 C   0  0  0  0  0  0  0  0  0  0  0  0
    0.9151   -1.0228   -0.0523 C   0  0  0  0  0  0  0  0  0  0  0  0
   -2.7104   -0.6238   -0.0385 C   0  0  0  0  0  0  0  0  0  0  0  0
   -1.4105    1.3683    0.3807 C   0  0  0  0  0  0  0  0  0  0  0  0
   -2.6530    0.6055    0.4278 C   0  0  0  0  0  0  0  0  0  0  0  0
    0.0002   -0.3358   -1.7865 H   0  0  0  0  0  0  0  0  0  0  0  0
   -1.8760   -1.5788   -1.6703 H   0  0  0  0  0  0  0  0  0  0  0  0
   -1.4173   -2.3327   -0.1497 H   0  0  0  0  0  0  0  0  0  0  0  0
    1.3545    2.1589    0.2628 H   0  0  0  0  0  0  0  0  0  0  0  0
    1.2160    1.3862   -1.4181 H   0  0  0  0  0  0  0  0  0  0  0  0
    3.1633    0.8944    1.4775 H   0  0  0  0  0  0  0  0  0  0  0  0
    3.2131   -0.8992    1.5005 H   0  0  0  0  0  0  0  0  0  0  0  0
    3.8633    0.0386    0.0331 H   0  0  0  0  0  0  0  0  0  0  0  0
    1.1270   -2.0528    0.2104 H   0  0  0  0  0  0  0  0  0  0  0  0
   -3.6290   -1.2212   -0.0201 H   0  0  0  0  0  0  0  0  0  0  0  0
   -1.3702    2.3701    0.7689 H   0  0  0  0  0  0  0  0  0  0  0  0
   -3.5577    1.0188    0.8421 H   0  0  0  0  0  0  0  0  0  0  0  0
  1  5  1  0
  1  7  1  0
  1  2  1  0
  1 11  1  0
  2  8  1  0
  2 12  1  0
  2 13  1  0
  3  5  1  0
  3  6  1  0
  3 14  1  0
  3 15  1  0
  4  6  1  0
  4 16  1  0
  4 17  1  0
  4 18  1  0
  5  9  2  0
  6  7  2  0
  7 19  1  0
  8 10  2  0
  8 20  1  0
  9 10  1  0
  9 21  1  0
 10 22  1  0
M  END
