
     RDKit          3D

 22 23  0  0  0  0  0  0  0  0999 V2000
   -0.3509   -0.5226   -0.7638 C   0  0  0  0  0  0  0  0  0  0  0  0
   -1.4958   -1.3498   -0.1544 C   0  0  0  0  0  0  0  0  0  0  0  0
    1.0109    1.2621    0.2693 C   0  0  0  0  0  0  0  0  0  0  0  0
    3.1940   -0.2056    0.5146 C   0  0  0  0  0  0  0  0  0  0  0  0
   -0.3465    0.8561   -0.1858 C   0  0  0  0  0  0  0  0  0  0  0  0
    1.7614   -0.0248    0.1174 C   0  0  0  0  0  0  0  0  0  0  0  0
    1.0151   -1.0030   -0.4041 C   0  0  0  0  0  0  0  0  0  0  0  0
   -2.7822   -0.5531   -0.2034 C   0  0  0  0  0  0  0  0  0  0  0  0
   -1.4822    1.4986    0.1076 C   0  0  0  0  0  0  0  0  0  0  0  0
   -2.7667    0.7812   -0.0442 C   0  0  0  0  0  0  0  0  0  0  0  0
   -0.4601   -0.4681   -1.8691 H   0  0  0  0  0  0  0  0  0  0  0  0
   -1.6187   -2.3001   -0.7163 H   0  0  0  0  0  0  0  0  0  0  0  0
   -1.2703   -1.5918    0.9075 H   0  0  0  0  0  0  0  0  0  0  0  0
    0.9983    1.5764    1.3350 H   0  0  0  0  0  0  0  0  0  0  0  0
    1.4302    2.0543   -0.3861 H   0  0  0  0  0  0  0  0  0  0  0  0
    3.6024    0.7421    0.9243 H   0  0  0  0  0  0  0  0  0  0  0  0
    3.2710   -0.9951    1.2914 H   0  0  0  0  0  0  0  0  0  0  0  0
    3.7942   -0.5017   -0.3712 H   0  0  0  0  0  0  0  0  0  0  0  0
    1.3827   -2.0046   -0.6051 H   0  0  0  0  0  0  0  0  0  0  0  0
   -3.7269   -1.0709   -0.3108 H   0  0  0  0  0  0  0  0  0  0  0  0
   -1.4628    2.4885    0.5452 H   0  0  0  0  0  0  0  0  0  0  0  0
   -3.6971    1.3321    0.0019 H   0  0  0  0  0  0  0  0  0  0  0  0
  1  5  1  0
  1  7  1  0
  1  2  1  0
  1 11  1  0
  2  8  1  0
  2 12  1  0
  2 13  1  0
  3  5  1  0
  3  6  1  0
  3 14  1  0
  3 15  1  0
  4  6  1  0
  4 16  1  0
  4 17  1  0
  4 18  1  0
  5  9  2  0
  6  7  2  0
  7 19  1  0
  8 10  2  0
  8 20  1  0
  9 10  1  0
  9 21  1  0
 10 22  1  0
M  END
