
     RDKit          3D

 20 21  0  0  0  0  0  0  0  0999 V2000
    1.0372   -0.0960   -1.2547 C   0  0  0  0  0  0  0  0  0  0  0  0
    1.0363    0.3381    1.2129 C   0  0  0  0  0  0  0  0  0  0  0  0
    1.8610    0.2173   -0.0375 C   0  0  0  0  0  0  0  0  0  0  0  0
   -0.3281   -0.1580   -0.6739 C   0  0  0  0  0  0  0  0  0  0  0  0
   -0.3286    0.0814    0.6871 C   0  0  0  0  0  0  0  0  0  0  0  0
   -1.5166   -0.4215   -1.3586 C   0  0  0  0  0  0  0  0  0  0  0  0
   -1.5176    0.0673    1.4198 C   0  0  0  0  0  0  0  0  0  0  0  0
   -2.7207   -0.4395   -0.6379 C   0  0  0  0  0  0  0  0  0  0  0  0
   -2.7212   -0.1958    0.7477 C   0  0  0  0  0  0  0  0  0  0  0  0
    3.1878    0.3721   -0.0643 C   0  0  0  0  0  0  0  0  0  0  0  0
    1.1100    0.7202   -2.0047 H   0  0  0  0  0  0  0  0  0  0  0  0
    1.3262   -1.0769   -1.6885 H   0  0  0  0  0  0  0  0  0  0  0  0
    1.1087    1.3612    1.6394 H   0  0  0  0  0  0  0  0  0  0  0  0
    1.3248   -0.4360    1.9556 H   0  0  0  0  0  0  0  0  0  0  0  0
   -1.5107   -0.6083   -2.4247 H   0  0  0  0  0  0  0  0  0  0  0  0
   -1.5125    0.2554    2.4857 H   0  0  0  0  0  0  0  0  0  0  0  0
   -3.6524   -0.6417   -1.1502 H   0  0  0  0  0  0  0  0  0  0  0  0
   -3.6533   -0.2112    1.2976 H   0  0  0  0  0  0  0  0  0  0  0  0
    3.7351    0.2740   -0.9965 H   0  0  0  0  0  0  0  0  0  0  0  0
    3.7344    0.5980    0.8459 H   0  0  0  0  0  0  0  0  0  0  0  0
  1  4  1  0
  1  3  1  0
  1 11  1  0
  1 12  1  0
  2  3  1  0
  2  5  1  0
  2 13  1  0
  2 14  1  0
  3 10  2  0
  4  5  2  0
  4  6  1  0
  5  7  1  0
  6  8  2  0
  6 15  1  0
  7  9  2  0
  7 16  1  0
  8  9  1  0
  8 17  1  0
  9 18  1  0
 10 19  1  0
 10 20  1  0
M  END
