
     RDKit          3D

 20 20  0  0  0  0  0  0  0  0999 V2000
   -2.8736    0.3923    0.3794 C   0  0  0  0  0  0  0  0  0  0  0  0
    2.1950    0.0179   -0.9944 C   0  0  0  0  0  0  0  0  0  0  0  0
   -0.0932   -0.3832   -0.1252 C   0  0  0  0  0  0  0  0  0  0  0  0
    1.1478   -0.7742   -0.3306 C   0  0  0  0  0  0  0  0  0  0  0  0
   -2.2782   -0.8877    0.7581 C   0  0  0  0  0  0  0  0  0  0  0  0
   -1.8728    1.2386   -0.2940 C   0  0  0  0  0  0  0  0  0  0  0  0
   -1.0470   -1.2793    0.5557 C   0  0  0  0  0  0  0  0  0  0  0  0
   -0.6209    0.9111   -0.5307 C   0  0  0  0  0  0  0  0  0  0  0  0
    3.2810    0.1858    0.0014 C   0  0  0  0  0  0  0  0  0  0  0  0
    4.1848    0.3350    0.8062 C   0  0  0  0  0  0  0  0  0  0  0  0
   -3.7425    0.2306   -0.3169 H   0  0  0  0  0  0  0  0  0  0  0  0
   -3.2950    0.9286    1.2747 H   0  0  0  0  0  0  0  0  0  0  0  0
    2.6418   -0.5707   -1.8461 H   0  0  0  0  0  0  0  0  0  0  0  0
    1.8693    0.9877   -1.3848 H   0  0  0  0  0  0  0  0  0  0  0  0
    1.4260   -1.7622    0.0171 H   0  0  0  0  0  0  0  0  0  0  0  0
   -2.9346   -1.6089    1.2724 H   0  0  0  0  0  0  0  0  0  0  0  0
   -2.2230    2.2306   -0.6212 H   0  0  0  0  0  0  0  0  0  0  0  0
   -0.7173   -2.2723    0.8896 H   0  0  0  0  0  0  0  0  0  0  0  0
   -0.0025    1.6172   -1.0266 H   0  0  0  0  0  0  0  0  0  0  0  0
    4.9547    0.4631    1.5156 H   0  0  0  0  0  0  0  0  0  0  0  0
  1  5  1  0
  1  6  1  0
  1 11  1  0
  1 12  1  0
  2  4  1  0
  2  9  1  0
  2 13  1  0
  2 14  1  0
  3  4  2  3
  3  7  1  0
  3  8  1  0
  4 15  1  0
  5  7  2  0
  5 16  1  0
  6  8  2  0
  6 17  1  0
  7 18  1  0
  8 19  1  0
  9 10  3  0
 10 20  1  0
M  END
