
     RDKit          3D

 20 20  0  0  0  0  0  0  0  0999 V2000
   -2.6054    0.5643    0.6999 C   0  0  0  0  0  0  0  0  0  0  0  0
    2.2332   -0.3743   -1.2012 C   0  0  0  0  0  0  0  0  0  0  0  0
   -0.0879   -0.5725   -0.2287 C   0  0  0  0  0  0  0  0  0  0  0  0
    1.0650   -1.1354   -0.6387 C   0  0  0  0  0  0  0  0  0  0  0  0
   -2.3178   -0.9159    0.7227 C   0  0  0  0  0  0  0  0  0  0  0  0
   -1.4882    1.4053    0.1347 C   0  0  0  0  0  0  0  0  0  0  0  0
   -1.1631   -1.4354    0.2998 C   0  0  0  0  0  0  0  0  0  0  0  0
   -0.3328    0.8871   -0.2889 C   0  0  0  0  0  0  0  0  0  0  0  0
    2.9073    0.3924   -0.1472 C   0  0  0  0  0  0  0  0  0  0  0  0
    3.4600    1.0236    0.7186 C   0  0  0  0  0  0  0  0  0  0  0  0
   -3.5193    0.7374    0.0939 H   0  0  0  0  0  0  0  0  0  0  0  0
   -2.8110    0.9007    1.7377 H   0  0  0  0  0  0  0  0  0  0  0  0
    2.9636   -1.0932   -1.6282 H   0  0  0  0  0  0  0  0  0  0  0  0
    1.9052    0.3019   -2.0183 H   0  0  0  0  0  0  0  0  0  0  0  0
    1.1700   -2.2137   -0.5888 H   0  0  0  0  0  0  0  0  0  0  0  0
   -3.0824   -1.5806    1.1052 H   0  0  0  0  0  0  0  0  0  0  0  0
   -1.6339    2.4769    0.0771 H   0  0  0  0  0  0  0  0  0  0  0  0
   -1.0236   -2.5091    0.3501 H   0  0  0  0  0  0  0  0  0  0  0  0
    0.4168    1.5628   -0.6786 H   0  0  0  0  0  0  0  0  0  0  0  0
    3.9445    1.5778    1.4789 H   0  0  0  0  0  0  0  0  0  0  0  0
  1  5  1  0
  1  6  1  0
  1 11  1  0
  1 12  1  0
  2  4  1  0
  2  9  1  0
  2 13  1  0
  2 14  1  0
  3  4  2  3
  3  7  1  0
  3  8  1  0
  4 15  1  0
  5  7  2  0
  5 16  1  0
  6  8  2  0
  6 17  1  0
  7 18  1  0
  8 19  1  0
  9 10  3  0
 10 20  1  0
M  END
