
     RDKit          3D

 32 33  0  0  0  0  0  0  0  0999 V2000
    0.2528    0.7044    0.6346 C   0  0  0  0  0  0  0  0  0  0  0  0
    2.0292   -0.2777    0.2192 C   0  0  0  0  0  0  0  0  0  0  0  0
   -1.1605    1.0472    0.2021 C   0  0  0  0  0  0  0  0  0  0  0  0
   -2.1577    0.3361    1.0124 C   0  0  0  0  0  0  0  0  0  0  0  0
    0.6090   -0.7798    0.5183 C   0  0  0  0  0  0  0  0  0  0  0  0
    1.3311    0.9367   -0.3974 C   0  0  0  0  0  0  0  0  0  0  0  0
    2.8036   -1.1314   -0.7520 C   0  0  0  0  0  0  0  0  0  0  0  0
   -3.2935   -0.3390    0.2636 C   0  0  0  0  0  0  0  0  0  0  0  0
    4.1816   -0.4803   -0.9243 C   0  0  0  0  0  0  0  0  0  0  0  0
   -2.7373   -1.3706   -0.6877 C   0  0  0  0  0  0  0  0  0  0  0  0
   -2.4831    1.6288    1.5970 C   0  0  0  0  0  0  0  0  0  0  0  0
   -1.6047    2.2623    0.8841 C   0  0  0  0  0  0  0  0  0  0  0  0
    2.5384   -0.0249    1.1506 H   0  0  0  0  0  0  0  0  0  0  0  0
    0.4847    1.1100    1.6263 H   0  0  0  0  0  0  0  0  0  0  0  0
   -1.7058   -0.4149    1.7046 H   0  0  0  0  0  0  0  0  0  0  0  0
   -1.2983    1.0357   -0.9059 H   0  0  0  0  0  0  0  0  0  0  0  0
    2.9311   -2.1218   -0.2921 H   0  0  0  0  0  0  0  0  0  0  0  0
    2.2905   -1.2286   -1.7111 H   0  0  0  0  0  0  0  0  0  0  0  0
    0.1351   -1.2775   -0.3423 H   0  0  0  0  0  0  0  0  0  0  0  0
    0.4915   -1.2858    1.4916 H   0  0  0  0  0  0  0  0  0  0  0  0
    0.9643    0.7498   -1.4272 H   0  0  0  0  0  0  0  0  0  0  0  0
   -3.9115   -0.8500    1.0320 H   0  0  0  0  0  0  0  0  0  0  0  0
   -3.8641    0.4174   -0.3040 H   0  0  0  0  0  0  0  0  0  0  0  0
    1.8657    1.8911   -0.2396 H   0  0  0  0  0  0  0  0  0  0  0  0
    4.8783   -1.1191   -1.4989 H   0  0  0  0  0  0  0  0  0  0  0  0
    4.5992   -0.3581    0.0997 H   0  0  0  0  0  0  0  0  0  0  0  0
    4.0704    0.5397   -1.3287 H   0  0  0  0  0  0  0  0  0  0  0  0
   -2.1917   -2.1212   -0.0897 H   0  0  0  0  0  0  0  0  0  0  0  0
   -3.5488   -1.8658   -1.2519 H   0  0  0  0  0  0  0  0  0  0  0  0
   -2.0076   -0.8779   -1.3688 H   0  0  0  0  0  0  0  0  0  0  0  0
   -3.1982    1.9486    2.3525 H   0  0  0  0  0  0  0  0  0  0  0  0
   -1.2934    3.3169    0.8054 H   0  0  0  0  0  0  0  0  0  0  0  0
  1  5  1  0
  1  6  1  0
  1 14  1  0
  1  3  1  0
  2  7  1  0
  2 13  1  0
  2  6  1  0
  2  5  1  0
  3  4  1  0
  3 16  1  0
  3 12  1  0
  4  8  1  0
  4 15  1  0
  4 11  1  0
  5 19  1  0
  5 20  1  0
  6 21  1  0
  6 24  1  0
  7 17  1  0
  7 18  1  0
  7  9  1  0
  8 22  1  0
  8 23  1  0
  8 10  1  0
  9 25  1  0
  9 26  1  0
  9 27  1  0
 10 28  1  0
 10 29  1  0
 10 30  1  0
 11 12  2  0
 11 31  1  0
 12 32  1  0
M  END
