
     RDKit          3D

 17 17  0  0  0  0  0  0  0  0999 V2000
   -1.4325   -0.0229   -0.7664 C   0  0  0  0  0  0  0  0  0  0  0  0
    2.1219    0.6873    0.2630 C   0  0  0  0  0  0  0  0  0  0  0  0
   -2.3103   -0.0380    0.4799 C   0  0  0  0  0  0  0  0  0  0  0  0
    0.0191   -0.0143   -0.3926 C   0  0  0  0  0  0  0  0  0  0  0  0
    0.7415    1.0711   -0.1578 C   0  0  0  0  0  0  0  0  0  0  0  0
    2.0332   -0.8046    0.2415 C   0  0  0  0  0  0  0  0  0  0  0  0
    0.8250   -1.1933   -0.1309 C   0  0  0  0  0  0  0  0  0  0  0  0
   -1.6722    0.8746   -1.3771 H   0  0  0  0  0  0  0  0  0  0  0  0
   -1.6500   -0.9234   -1.3799 H   0  0  0  0  0  0  0  0  0  0  0  0
    2.8741    1.0502   -0.4687 H   0  0  0  0  0  0  0  0  0  0  0  0
    2.3386    1.0549    1.2880 H   0  0  0  0  0  0  0  0  0  0  0  0
   -3.3797   -0.0498    0.1813 H   0  0  0  0  0  0  0  0  0  0  0  0
   -2.1224    0.8683    1.0946 H   0  0  0  0  0  0  0  0  0  0  0  0
   -2.1005   -0.9439    1.0882 H   0  0  0  0  0  0  0  0  0  0  0  0
    0.3754    2.0862   -0.2437 H   0  0  0  0  0  0  0  0  0  0  0  0
    2.8379   -1.4805    0.4988 H   0  0  0  0  0  0  0  0  0  0  0  0
    0.5008   -2.2219   -0.2183 H   0  0  0  0  0  0  0  0  0  0  0  0
  1  3  1  0
  1  4  1  0
  1  8  1  0
  1  9  1  0
  2  5  1  0
  2  6  1  0
  2 10  1  0
  2 11  1  0
  3 12  1  0
  3 13  1  0
  3 14  1  0
  4  5  2  0
  4  7  1  0
  5 15  1  0
  6  7  2  0
  6 16  1  0
  7 17  1  0
M  END
