
     RDKit          3D

 15 15  0  0  0  0  0  0  0  0999 V2000
   -2.0529   -0.3541   -0.2744 C   0  0  0  0  0  0  0  0  0  0  0  0
    0.2508   -0.1270   -0.2082 C   0  0  0  0  0  0  0  0  0  0  0  0
   -0.7356   -0.6868   -0.8931 C   0  0  0  0  0  0  0  0  0  0  0  0
   -1.6303    0.4926    0.8805 C   0  0  0  0  0  0  0  0  0  0  0  0
   -0.3139    0.6168    0.9105 C   0  0  0  0  0  0  0  0  0  0  0  0
    1.6773   -0.2631   -0.5600 C   0  0  0  0  0  0  0  0  0  0  0  0
    2.6534    0.3083    0.1426 C   0  0  0  0  0  0  0  0  0  0  0  0
   -2.5682   -1.2729    0.0764 H   0  0  0  0  0  0  0  0  0  0  0  0
   -2.6855    0.2255   -0.9791 H   0  0  0  0  0  0  0  0  0  0  0  0
   -0.6034   -1.2987   -1.7765 H   0  0  0  0  0  0  0  0  0  0  0  0
   -2.3010    0.9459    1.5985 H   0  0  0  0  0  0  0  0  0  0  0  0
    0.2298    1.1833    1.6542 H   0  0  0  0  0  0  0  0  0  0  0  0
    1.9445   -0.8538   -1.4282 H   0  0  0  0  0  0  0  0  0  0  0  0
    3.6834    0.1747   -0.1616 H   0  0  0  0  0  0  0  0  0  0  0  0
    2.4515    0.9094    1.0183 H   0  0  0  0  0  0  0  0  0  0  0  0
  1  3  1  0
  1  4  1  0
  1  8  1  0
  1  9  1  0
  2  3  2  0
  2  5  1  0
  2  6  1  0
  3 10  1  0
  4  5  2  0
  4 11  1  0
  5 12  1  0
  6  7  2  0
  6 13  1  0
  7 14  1  0
  7 15  1  0
M  END
