
     RDKit          3D

 15 15  0  0  0  0  0  0  0  0999 V2000
   -2.0302   -0.3090   -0.2700 C   0  0  0  0  0  0  0  0  0  0  0  0
    0.2655   -0.1434   -0.2490 C   0  0  0  0  0  0  0  0  0  0  0  0
   -0.7525   -0.6857   -0.9306 C   0  0  0  0  0  0  0  0  0  0  0  0
   -1.5920    0.5244    0.8839 C   0  0  0  0  0  0  0  0  0  0  0  0
   -0.2660    0.6108    0.8827 C   0  0  0  0  0  0  0  0  0  0  0  0
    1.6792   -0.2847   -0.5851 C   0  0  0  0  0  0  0  0  0  0  0  0
    2.6120    0.2942    0.1573 C   0  0  0  0  0  0  0  0  0  0  0  0
   -2.4311   -1.2838    0.1245 H   0  0  0  0  0  0  0  0  0  0  0  0
   -2.7371    0.2165   -0.9296 H   0  0  0  0  0  0  0  0  0  0  0  0
   -0.6761   -1.3010   -1.8203 H   0  0  0  0  0  0  0  0  0  0  0  0
   -2.3009    0.9608    1.5767 H   0  0  0  0  0  0  0  0  0  0  0  0
    0.2775    1.1724    1.6368 H   0  0  0  0  0  0  0  0  0  0  0  0
    1.9730   -0.8674   -1.4484 H   0  0  0  0  0  0  0  0  0  0  0  0
    3.6557    0.2170   -0.0519 H   0  0  0  0  0  0  0  0  0  0  0  0
    2.3228    0.8789    1.0230 H   0  0  0  0  0  0  0  0  0  0  0  0
  1  3  1  0
  1  4  1  0
  1  8  1  0
  1  9  1  0
  2  3  2  0
  2  5  1  0
  2  6  1  0
  3 10  1  0
  4  5  2  0
  4 11  1  0
  5 12  1  0
  6  7  2  0
  6 13  1  0
  7 14  1  0
  7 15  1  0
M  END
