
     RDKit          3D

 10 10  0  0  0  0  0  0  0  0999 V2000
   -0.5431   -0.7432    0.2232 C   0  0  0  0  0  0  0  0  0  0  0  0
    0.8528   -0.3367   -0.0354 C   0  0  0  0  0  0  0  0  0  0  0  0
   -0.8818    0.6601   -0.0032 C   0  0  0  0  0  0  0  0  0  0  0  0
    0.3507    1.0083   -0.2294 C   0  0  0  0  0  0  0  0  0  0  0  0
   -0.8757   -1.4568   -0.5630 H   0  0  0  0  0  0  0  0  0  0  0  0
   -0.7688   -1.1227    1.2541 H   0  0  0  0  0  0  0  0  0  0  0  0
    1.5727   -0.4817    0.8080 H   0  0  0  0  0  0  0  0  0  0  0  0
    1.3104   -0.7080   -0.9933 H   0  0  0  0  0  0  0  0  0  0  0  0
   -1.8411    1.2070    0.0155 H   0  0  0  0  0  0  0  0  0  0  0  0
    0.8239    1.9738   -0.4765 H   0  0  0  0  0  0  0  0  0  0  0  0
  1  2  1  0
  1  3  1  0
  1  5  1  0
  1  6  1  0
  2  7  1  0
  2  4  1  0
  2  8  1  0
  3  4  2  0
  3  9  1  0
  4 10  1  0
M  END
