
     RDKit          3D

 15 15  0  0  0  0  0  0  0  0999 V2000
   -1.5221   -0.1880   -0.3638 C   0  0  0  0  0  0  0  0  0  0  0  0
   -0.9973    1.0831    0.1916 C   0  0  0  0  0  0  0  0  0  0  0  0
   -0.6590   -1.3337    0.0143 C   0  0  0  0  0  0  0  0  0  0  0  0
    0.2193    1.5689    0.3472 C   0  0  0  0  0  0  0  0  0  0  0  0
    0.6500   -1.4808    0.1233 C   0  0  0  0  0  0  0  0  0  0  0  0
    1.4499    0.8781   -0.0386 C   0  0  0  0  0  0  0  0  0  0  0  0
    1.6313   -0.4304   -0.1337 C   0  0  0  0  0  0  0  0  0  0  0  0
   -2.5476   -0.3771    0.0076 H   0  0  0  0  0  0  0  0  0  0  0  0
   -1.5409   -0.0633   -1.4810 H   0  0  0  0  0  0  0  0  0  0  0  0
   -1.7636    1.7620    0.5463 H   0  0  0  0  0  0  0  0  0  0  0  0
   -1.1871   -2.2637    0.2592 H   0  0  0  0  0  0  0  0  0  0  0  0
    2.2878    1.5195   -0.2659 H   0  0  0  0  0  0  0  0  0  0  0  0
    0.3308    2.5655    0.7984 H   0  0  0  0  0  0  0  0  0  0  0  0
    2.6098   -0.7770   -0.4339 H   0  0  0  0  0  0  0  0  0  0  0  0
    1.0387   -2.4629    0.4289 H   0  0  0  0  0  0  0  0  0  0  0  0
  1  2  1  0
  1  3  1  0
  1  8  1  0
  1  9  1  0
  2  4  2  0
  2 10  1  0
  3  5  2  0
  3 11  1  0
  4  6  1  0
  4 13  1  0
  5  7  1  0
  5 15  1  0
  6  7  2  0
  6 12  1  0
  7 14  1  0
M  END
