
     RDKit          3D

 15 15  0  0  0  0  0  0  0  0999 V2000
   -1.4006   -0.1673   -0.4173 C   0  0  0  0  0  0  0  0  0  0  0  0
   -1.0476    1.0751    0.3369 C   0  0  0  0  0  0  0  0  0  0  0  0
   -0.7047   -1.3580    0.1614 C   0  0  0  0  0  0  0  0  0  0  0  0
    0.1989    1.5517    0.4047 C   0  0  0  0  0  0  0  0  0  0  0  0
    0.6259   -1.4781    0.1861 C   0  0  0  0  0  0  0  0  0  0  0  0
    1.3851    0.8877   -0.1777 C   0  0  0  0  0  0  0  0  0  0  0  0
    1.5720   -0.4384   -0.2734 C   0  0  0  0  0  0  0  0  0  0  0  0
   -2.4990   -0.3258   -0.3653 H   0  0  0  0  0  0  0  0  0  0  0  0
   -1.1234   -0.0510   -1.4876 H   0  0  0  0  0  0  0  0  0  0  0  0
   -1.8483    1.6458    0.7916 H   0  0  0  0  0  0  0  0  0  0  0  0
   -1.3085   -2.1850    0.5152 H   0  0  0  0  0  0  0  0  0  0  0  0
    2.2141    1.5297   -0.4485 H   0  0  0  0  0  0  0  0  0  0  0  0
    0.3503    2.5163    0.8726 H   0  0  0  0  0  0  0  0  0  0  0  0
    2.5400   -0.7830   -0.6153 H   0  0  0  0  0  0  0  0  0  0  0  0
    1.0459   -2.4198    0.5166 H   0  0  0  0  0  0  0  0  0  0  0  0
  1  2  1  0
  1  3  1  0
  1  8  1  0
  1  9  1  0
  2  4  2  0
  2 10  1  0
  3  5  2  0
  3 11  1  0
  4  6  1  0
  4 13  1  0
  5  7  1  0
  5 15  1  0
  6  7  2  0
  6 12  1  0
  7 14  1  0
M  END
