
     RDKit          3D

 12 12  0  0  0  0  0  0  0  0999 V2000
    0.5840    0.7479    0.4106 O   0  0  0  0  0  0  0  0  0  0  0  0
   -0.1086   -1.0455   -0.8908 O   0  0  0  0  0  0  0  0  0  0  0  0
    2.0732   -0.3756   -0.9075 O   0  0  0  0  0  0  0  0  0  0  0  0
   -0.7849    0.8863    0.1884 C   0  0  0  0  0  0  0  0  0  0  0  0
   -1.2532   -0.3861   -0.4571 C   0  0  0  0  0  0  0  0  0  0  0  0
    0.9337   -0.5098   -0.1150 C   0  0  0  0  0  0  0  0  0  0  0  0
    3.3733    0.2737    0.2525 Li  0  0  0  0  0  1  0  0  0  0  0  0
   -0.9582    1.7522   -0.4867 H   0  0  0  0  0  0  0  0  0  0  0  0
   -1.3097    1.0603    1.1522 H   0  0  0  0  0  0  0  0  0  0  0  0
   -1.9182   -0.1738   -1.3214 H   0  0  0  0  0  0  0  0  0  0  0  0
   -1.7931   -1.0250    0.2762 H   0  0  0  0  0  0  0  0  0  0  0  0
    1.1617   -1.2046    0.7223 H   0  0  0  0  0  0  0  0  0  0  0  0
  1  4  1  0
  1  6  1  0
  2  5  1  0
  2  6  1  0
  3  6  1  0
  3  7  1  0
  4  5  1  0
  4  8  1  0
  4  9  1  0
  5 10  1  0
  5 11  1  0
  6 12  1  0
M  END
