
     RDKit          3D

 17 17  0  0  0  0  0  0  0  0999 V2000
    0.1089   -0.4650    0.3114 C   0  0  0  0  0  0  0  0  0  0  0  0
   -1.1480   -0.4232   -0.5370 C   0  0  0  0  0  0  0  0  0  0  0  0
   -2.1632    0.5327    0.0238 C   0  0  0  0  0  0  0  0  0  0  0  0
    0.7356    0.8816    0.3758 C   0  0  0  0  0  0  0  0  0  0  0  0
    1.1873   -1.2364   -0.3579 C   0  0  0  0  0  0  0  0  0  0  0  0
    1.9450    0.8631   -0.1610 C   0  0  0  0  0  0  0  0  0  0  0  0
    2.2253   -0.4885   -0.6257 C   0  0  0  0  0  0  0  0  0  0  0  0
   -0.0893   -0.7695    1.3396 H   0  0  0  0  0  0  0  0  0  0  0  0
   -0.9062   -0.1063   -1.5563 H   0  0  0  0  0  0  0  0  0  0  0  0
   -1.6237   -1.4182   -0.5787 H   0  0  0  0  0  0  0  0  0  0  0  0
   -2.5535    0.2039    1.0137 H   0  0  0  0  0  0  0  0  0  0  0  0
   -3.0298    0.5106   -0.6812 H   0  0  0  0  0  0  0  0  0  0  0  0
   -1.8202    1.5836    0.0569 H   0  0  0  0  0  0  0  0  0  0  0  0
    0.2143    1.7302    0.8194 H   0  0  0  0  0  0  0  0  0  0  0  0
    1.1482   -2.3053   -0.6106 H   0  0  0  0  0  0  0  0  0  0  0  0
    2.6254    1.7249   -0.2427 H   0  0  0  0  0  0  0  0  0  0  0  0
    3.1440   -0.8182   -1.1131 H   0  0  0  0  0  0  0  0  0  0  0  0
  1  2  1  0
  1  4  1  0
  1  5  1  0
  1  8  1  0
  2  3  1  0
  2  9  1  0
  2 10  1  0
  3 11  1  0
  3 12  1  0
  3 13  1  0
  4  6  2  0
  4 14  1  0
  5  7  2  0
  5 15  1  0
  6  7  1  0
  6 16  1  0
  7 17  1  0
M  END
