
     RDKit          3D

 20 21  0  0  0  0  0  0  0  0999 V2000
   -0.1474    2.0139    0.1829 C   0  0  0  0  0  0  0  0  0  0  0  0
   -2.5845   -0.8782    0.0296 C   0  0  0  0  0  0  0  0  0  0  0  0
    0.7165    0.8141    0.0546 C   0  0  0  0  0  0  0  0  0  0  0  0
   -1.4375    0.0948    0.0699 C   0  0  0  0  0  0  0  0  0  0  0  0
   -0.0449   -0.3349   -0.0135 C   0  0  0  0  0  0  0  0  0  0  0  0
   -1.5065    1.4125    0.1805 C   0  0  0  0  0  0  0  0  0  0  0  0
    2.1155    0.7584    0.0017 C   0  0  0  0  0  0  0  0  0  0  0  0
    0.5420   -1.5761   -0.1356 C   0  0  0  0  0  0  0  0  0  0  0  0
    2.6744   -0.4992   -0.1208 C   0  0  0  0  0  0  0  0  0  0  0  0
    1.9244   -1.6555   -0.1898 C   0  0  0  0  0  0  0  0  0  0  0  0
    0.0758    2.6299    1.0698 H   0  0  0  0  0  0  0  0  0  0  0  0
   -0.1255    2.6439   -0.7434 H   0  0  0  0  0  0  0  0  0  0  0  0
   -3.5393   -0.3794   -0.2474 H   0  0  0  0  0  0  0  0  0  0  0  0
   -2.6657   -1.4318    0.9857 H   0  0  0  0  0  0  0  0  0  0  0  0
   -2.3493   -1.5791   -0.8004 H   0  0  0  0  0  0  0  0  0  0  0  0
   -2.4362    1.9683    0.2582 H   0  0  0  0  0  0  0  0  0  0  0  0
    2.7031    1.6662    0.0559 H   0  0  0  0  0  0  0  0  0  0  0  0
    3.7702   -0.5636   -0.1639 H   0  0  0  0  0  0  0  0  0  0  0  0
    2.3790   -2.6325   -0.2857 H   0  0  0  0  0  0  0  0  0  0  0  0
   -0.0639   -2.4716   -0.1882 H   0  0  0  0  0  0  0  0  0  0  0  0
  1  3  1  0
  1  6  1  0
  1 11  1  0
  1 12  1  0
  2  4  1  0
  2 13  1  0
  2 14  1  0
  2 15  1  0
  3  5  2  0
  3  7  1  0
  4  5  1  0
  4  6  2  0
  5  8  1  0
  6 16  1  0
  7  9  2  0
  7 17  1  0
  8 10  2  0
  8 20  1  0
  9 10  1  0
  9 18  1  0
 10 19  1  0
M  END
