
     RDKit          3D

 16 16  0  0  0  0  0  0  0  0999 V2000
    0.5090   -0.4246   -0.2789 C   0  0  0  0  0  0  0  0  0  0  0  0
   -0.3682    0.6106   -0.8650 C   0  0  0  0  0  0  0  0  0  0  0  0
   -1.6795    0.3990   -0.1048 C   0  0  0  0  0  0  0  0  0  0  0  0
    1.9729   -0.0784   -0.2815 C   0  0  0  0  0  0  0  0  0  0  0  0
   -0.0121   -0.6603    1.0910 C   0  0  0  0  0  0  0  0  0  0  0  0
   -1.2538   -0.2013    1.2154 C   0  0  0  0  0  0  0  0  0  0  0  0
    0.4004   -1.3934   -0.8229 H   0  0  0  0  0  0  0  0  0  0  0  0
   -0.0606    1.6451   -0.7516 H   0  0  0  0  0  0  0  0  0  0  0  0
   -0.6045    0.4039   -1.9286 H   0  0  0  0  0  0  0  0  0  0  0  0
   -2.1659    1.3630    0.1312 H   0  0  0  0  0  0  0  0  0  0  0  0
   -2.3679   -0.2821   -0.6002 H   0  0  0  0  0  0  0  0  0  0  0  0
    2.3900   -0.3726   -1.2520 H   0  0  0  0  0  0  0  0  0  0  0  0
    2.1483    0.9897   -0.0241 H   0  0  0  0  0  0  0  0  0  0  0  0
    2.4683   -0.6505    0.5324 H   0  0  0  0  0  0  0  0  0  0  0  0
    0.5443   -1.1361    1.8663 H   0  0  0  0  0  0  0  0  0  0  0  0
   -1.9207   -0.2119    2.0733 H   0  0  0  0  0  0  0  0  0  0  0  0
  1  2  1  0
  1  4  1  0
  1  5  1  0
  1  7  1  0
  2  3  1  0
  2  8  1  0
  2  9  1  0
  3  6  1  0
  3 10  1  0
  3 11  1  0
  4 12  1  0
  4 13  1  0
  4 14  1  0
  5  6  2  0
  5 15  1  0
  6 16  1  0
M  END
