
     RDKit          3D

 16 17  0  0  0  0  0  0  0  0999 V2000
   -0.7357   -0.5976   -0.4004 C   0  0  0  0  0  0  0  0  0  0  0  0
   -1.8888   -0.2202    0.3652 C   0  0  0  0  0  0  0  0  0  0  0  0
   -0.3166    0.8196   -0.4236 C   0  0  0  0  0  0  0  0  0  0  0  0
   -1.4974    1.2152    0.1855 C   0  0  0  0  0  0  0  0  0  0  0  0
    0.3759   -1.3814    0.2697 C   0  0  0  0  0  0  0  0  0  0  0  0
    1.0382    1.3177   -0.5777 C   0  0  0  0  0  0  0  0  0  0  0  0
    1.6548   -0.9351    0.2351 C   0  0  0  0  0  0  0  0  0  0  0  0
    2.0010    0.4332   -0.2739 C   0  0  0  0  0  0  0  0  0  0  0  0
   -0.9730   -0.9741   -1.4207 H   0  0  0  0  0  0  0  0  0  0  0  0
   -1.8455   -0.5296    1.4337 H   0  0  0  0  0  0  0  0  0  0  0  0
   -2.8517   -0.4540   -0.1392 H   0  0  0  0  0  0  0  0  0  0  0  0
    0.1634   -2.3666    0.6647 H   0  0  0  0  0  0  0  0  0  0  0  0
   -1.8654    2.1480    0.5908 H   0  0  0  0  0  0  0  0  0  0  0  0
    2.4456   -1.5608    0.6282 H   0  0  0  0  0  0  0  0  0  0  0  0
    3.0389    0.7369   -0.3148 H   0  0  0  0  0  0  0  0  0  0  0  0
    1.2561    2.3488   -0.8225 H   0  0  0  0  0  0  0  0  0  0  0  0
  1  2  1  0
  1  3  1  0
  1  5  1  0
  1  9  1  0
  2  4  1  0
  2 10  1  0
  2 11  1  0
  3  4  2  0
  3  6  1  0
  4 13  1  0
  5  7  2  0
  5 12  1  0
  6  8  2  0
  6 16  1  0
  7  8  1  0
  7 14  1  0
  8 15  1  0
M  END
