
     RDKit          3D

 19 20  0  0  0  0  0  0  0  0999 V2000
   -1.4081   -0.1329   -0.4918 C   0  0  0  0  0  0  0  0  0  0  0  0
   -1.2822   -0.8031    0.8418 C   0  0  0  0  0  0  0  0  0  0  0  0
   -2.1564    1.1751   -0.4953 C   0  0  0  0  0  0  0  0  0  0  0  0
    0.0292   -0.0277   -0.4931 C   0  0  0  0  0  0  0  0  0  0  0  0
    0.1487   -0.6332    0.7128 C   0  0  0  0  0  0  0  0  0  0  0  0
    1.4094   -0.8320    1.2831 C   0  0  0  0  0  0  0  0  0  0  0  0
    1.1823    0.3973   -1.1627 C   0  0  0  0  0  0  0  0  0  0  0  0
    2.5372   -0.4065    0.6090 C   0  0  0  0  0  0  0  0  0  0  0  0
    2.4369    0.2132   -0.6220 C   0  0  0  0  0  0  0  0  0  0  0  0
   -1.8714   -0.8515   -1.2133 H   0  0  0  0  0  0  0  0  0  0  0  0
   -1.7306   -0.1957    1.6787 H   0  0  0  0  0  0  0  0  0  0  0  0
   -1.6141   -1.8738    0.8680 H   0  0  0  0  0  0  0  0  0  0  0  0
   -1.4963    2.0544   -0.4031 H   0  0  0  0  0  0  0  0  0  0  0  0
   -2.9349    1.1018    0.2913 H   0  0  0  0  0  0  0  0  0  0  0  0
   -2.6814    1.2845   -1.4671 H   0  0  0  0  0  0  0  0  0  0  0  0
    3.5066   -0.5787    1.0855 H   0  0  0  0  0  0  0  0  0  0  0  0
    1.4934   -1.3227    2.2586 H   0  0  0  0  0  0  0  0  0  0  0  0
    3.3141    0.5487   -1.1552 H   0  0  0  0  0  0  0  0  0  0  0  0
    1.1175    0.8829   -2.1253 H   0  0  0  0  0  0  0  0  0  0  0  0
  1  2  1  0
  1  3  1  0
  1  4  1  0
  1 10  1  0
  2  5  1  0
  2 11  1  0
  2 12  1  0
  3 13  1  0
  3 14  1  0
  3 15  1  0
  4  5  2  0
  4  7  1  0
  5  6  1  0
  6  8  2  0
  6 17  1  0
  7  9  2  0
  7 19  1  0
  8  9  1  0
  8 16  1  0
  9 18  1  0
M  END
