
     RDKit          3D

 20 21  0  0  0  0  0  0  0  0999 V2000
    1.7296   -0.9772    0.0477 C   0  0  0  0  0  0  0  0  0  0  0  0
   -1.7143    0.9792   -0.0610 C   0  0  0  0  0  0  0  0  0  0  0  0
    0.2766   -0.6674    0.0753 C   0  0  0  0  0  0  0  0  0  0  0  0
   -0.2540    0.6818   -0.0907 C   0  0  0  0  0  0  0  0  0  0  0  0
    2.5087    0.2482   -0.1652 C   0  0  0  0  0  0  0  0  0  0  0  0
   -2.5174   -0.2560    0.1545 C   0  0  0  0  0  0  0  0  0  0  0  0
   -0.5663   -1.6958    0.2633 C   0  0  0  0  0  0  0  0  0  0  0  0
    0.5591    1.6992   -0.2757 C   0  0  0  0  0  0  0  0  0  0  0  0
    1.9918    1.4568   -0.3118 C   0  0  0  0  0  0  0  0  0  0  0  0
   -2.0094   -1.4498    0.2995 C   0  0  0  0  0  0  0  0  0  0  0  0
    1.9580   -1.4256    1.0484 H   0  0  0  0  0  0  0  0  0  0  0  0
    1.9813   -1.7240   -0.7298 H   0  0  0  0  0  0  0  0  0  0  0  0
   -1.9308    1.6511    0.8031 H   0  0  0  0  0  0  0  0  0  0  0  0
   -2.0482    1.4651   -1.0175 H   0  0  0  0  0  0  0  0  0  0  0  0
    3.5950    0.1769   -0.2086 H   0  0  0  0  0  0  0  0  0  0  0  0
   -3.5807   -0.1436    0.1910 H   0  0  0  0  0  0  0  0  0  0  0  0
    2.6527    2.3129   -0.4663 H   0  0  0  0  0  0  0  0  0  0  0  0
   -0.1686   -2.7001    0.3868 H   0  0  0  0  0  0  0  0  0  0  0  0
    0.1690    2.6956   -0.3984 H   0  0  0  0  0  0  0  0  0  0  0  0
   -2.6322   -2.3276    0.4553 H   0  0  0  0  0  0  0  0  0  0  0  0
  1  3  1  0
  1  5  1  0
  1 11  1  0
  1 12  1  0
  2  4  1  0
  2  6  1  0
  2 13  1  0
  2 14  1  0
  3  4  1  0
  3  7  2  0
  4  8  2  0
  5  9  2  0
  5 15  1  0
  6 10  2  0
  6 16  1  0
  7 10  1  0
  7 18  1  0
  8  9  1  0
  8 19  1  0
  9 17  1  0
 10 20  1  0
M  END
