
     RDKit          3D

 20 21  0  0  0  0  0  0  0  0999 V2000
    1.7475   -0.9623    0.0541 C   0  0  0  0  0  0  0  0  0  0  0  0
   -1.7475    0.9623   -0.0541 C   0  0  0  0  0  0  0  0  0  0  0  0
    0.2606   -0.6897    0.0862 C   0  0  0  0  0  0  0  0  0  0  0  0
   -0.2606    0.6897   -0.0862 C   0  0  0  0  0  0  0  0  0  0  0  0
    2.5808    0.2739   -0.1625 C   0  0  0  0  0  0  0  0  0  0  0  0
   -2.5808   -0.2739    0.1625 C   0  0  0  0  0  0  0  0  0  0  0  0
   -0.5920   -1.7045    0.2721 C   0  0  0  0  0  0  0  0  0  0  0  0
    0.5920    1.7045   -0.2721 C   0  0  0  0  0  0  0  0  0  0  0  0
    2.0471    1.4893   -0.3108 C   0  0  0  0  0  0  0  0  0  0  0  0
   -2.0471   -1.4893    0.3108 C   0  0  0  0  0  0  0  0  0  0  0  0
    2.0534   -1.4257    1.0165 H   0  0  0  0  0  0  0  0  0  0  0  0
    1.9683   -1.6804   -0.7644 H   0  0  0  0  0  0  0  0  0  0  0  0
   -1.9683    1.6804    0.7644 H   0  0  0  0  0  0  0  0  0  0  0  0
   -2.0534    1.4257   -1.0165 H   0  0  0  0  0  0  0  0  0  0  0  0
    3.6578    0.1667   -0.1986 H   0  0  0  0  0  0  0  0  0  0  0  0
   -3.6578   -0.1667    0.1986 H   0  0  0  0  0  0  0  0  0  0  0  0
    2.6978    2.3408   -0.4637 H   0  0  0  0  0  0  0  0  0  0  0  0
   -0.2174   -2.7133    0.3985 H   0  0  0  0  0  0  0  0  0  0  0  0
    0.2174    2.7133   -0.3985 H   0  0  0  0  0  0  0  0  0  0  0  0
   -2.6978   -2.3408    0.4637 H   0  0  0  0  0  0  0  0  0  0  0  0
  1  3  1  0
  1  5  1  0
  1 11  1  0
  1 12  1  0
  2  4  1  0
  2  6  1  0
  2 13  1  0
  2 14  1  0
  3  4  1  0
  3  7  2  0
  4  8  2  0
  5  9  2  0
  5 15  1  0
  6 10  2  0
  6 16  1  0
  7 10  1  0
  7 18  1  0
  8  9  1  0
  8 19  1  0
  9 17  1  0
 10 20  1  0
M  END
