
     RDKit          3D

 21 21  0  0  0  0  0  0  0  0999 V2000
   -0.3997   -0.9844    0.1027 C   0  0  0  0  0  0  0  0  0  0  0  0
   -1.8461   -1.1405    0.3280 C   0  0  0  0  0  0  0  0  0  0  0  0
    1.4258    0.5975   -0.6464 C   0  0  0  0  0  0  0  0  0  0  0  0
   -0.0278    0.3577   -0.3930 C   0  0  0  0  0  0  0  0  0  0  0  0
   -2.6923    0.0320    0.0335 C   0  0  0  0  0  0  0  0  0  0  0  0
    2.2411    0.4244    0.5674 C   0  0  0  0  0  0  0  0  0  0  0  0
   -0.8421    1.3490   -0.6299 C   0  0  0  0  0  0  0  0  0  0  0  0
   -2.2685    1.1933   -0.4080 C   0  0  0  0  0  0  0  0  0  0  0  0
    3.2168   -0.4931    0.6162 C   0  0  0  0  0  0  0  0  0  0  0  0
    0.1539   -1.2021    1.0560 H   0  0  0  0  0  0  0  0  0  0  0  0
   -0.0609   -1.7820   -0.6104 H   0  0  0  0  0  0  0  0  0  0  0  0
   -2.0237   -1.3337    1.4349 H   0  0  0  0  0  0  0  0  0  0  0  0
   -2.2260   -2.0555   -0.2315 H   0  0  0  0  0  0  0  0  0  0  0  0
    1.6320    1.5872   -1.0616 H   0  0  0  0  0  0  0  0  0  0  0  0
    1.7442   -0.1440   -1.4065 H   0  0  0  0  0  0  0  0  0  0  0  0
    2.0406    1.0475    1.4160 H   0  0  0  0  0  0  0  0  0  0  0  0
   -3.7562   -0.0746    0.1957 H   0  0  0  0  0  0  0  0  0  0  0  0
   -0.5020    2.3215   -0.9975 H   0  0  0  0  0  0  0  0  0  0  0  0
   -2.9672    1.9881   -0.5926 H   0  0  0  0  0  0  0  0  0  0  0  0
    3.3491   -1.0783   -0.2877 H   0  0  0  0  0  0  0  0  0  0  0  0
    3.8089   -0.6101    1.5148 H   0  0  0  0  0  0  0  0  0  0  0  0
  1  4  1  0
  1  2  1  0
  1 10  1  0
  1 11  1  0
  2  5  1  0
  2 12  1  0
  2 13  1  0
  3  4  1  0
  3  6  1  0
  3 14  1  0
  3 15  1  0
  4  7  2  0
  5  8  2  0
  5 17  1  0
  6  9  2  0
  6 16  1  0
  7  8  1  0
  7 18  1  0
  8 19  1  0
  9 20  1  0
  9 21  1  0
M  END
