
     RDKit          3D

 17 17  0  0  0  0  0  0  0  0999 V2000
    0.1111   -1.1959    0.4441 C   0  0  0  0  0  0  0  0  0  0  0  0
   -1.3407   -0.9994   -0.0152 C   0  0  0  0  0  0  0  0  0  0  0  0
    0.4017    1.2224   -0.5554 C   0  0  0  0  0  0  0  0  0  0  0  0
    1.0056   -0.0677   -0.0341 C   0  0  0  0  0  0  0  0  0  0  0  0
   -1.7997    0.4078    0.2480 C   0  0  0  0  0  0  0  0  0  0  0  0
   -0.9862    1.4416   -0.0084 C   0  0  0  0  0  0  0  0  0  0  0  0
    2.3367   -0.2213   -0.0132 C   0  0  0  0  0  0  0  0  0  0  0  0
    0.4771   -2.1669    0.0440 H   0  0  0  0  0  0  0  0  0  0  0  0
    0.1490   -1.2399    1.5542 H   0  0  0  0  0  0  0  0  0  0  0  0
   -1.4086   -1.1972   -1.1071 H   0  0  0  0  0  0  0  0  0  0  0  0
   -2.0054   -1.7176    0.5105 H   0  0  0  0  0  0  0  0  0  0  0  0
    0.3549    1.1775   -1.6641 H   0  0  0  0  0  0  0  0  0  0  0  0
    1.0327    2.0902   -0.2643 H   0  0  0  0  0  0  0  0  0  0  0  0
   -2.7816    0.5848    0.6763 H   0  0  0  0  0  0  0  0  0  0  0  0
   -1.3256    2.4529    0.1938 H   0  0  0  0  0  0  0  0  0  0  0  0
    2.7846   -1.1403    0.3531 H   0  0  0  0  0  0  0  0  0  0  0  0
    2.9945    0.5691   -0.3621 H   0  0  0  0  0  0  0  0  0  0  0  0
  1  2  1  0
  1  4  1  0
  1  8  1  0
  1  9  1  0
  2  5  1  0
  2 10  1  0
  2 11  1  0
  3  4  1  0
  3  6  1  0
  3 12  1  0
  3 13  1  0
  4  7  2  0
  5  6  2  0
  5 14  1  0
  6 15  1  0
  7 16  1  0
  7 17  1  0
M  END
