
     RDKit          3D

 22 22  0  0  0  0  0  0  0  0999 V2000
   -0.5172   -0.4826   -0.0080 C   0  0  0  0  0  0  0  0  0  0  0  0
   -1.2318    0.8818    0.1229 C   0  0  0  0  0  0  0  0  0  0  0  0
   -1.1871   -1.3438   -1.0567 C   0  0  0  0  0  0  0  0  0  0  0  0
    0.9411   -0.2859   -0.3334 C   0  0  0  0  0  0  0  0  0  0  0  0
   -2.7286    0.7162    0.1498 C   0  0  0  0  0  0  0  0  0  0  0  0
   -2.5066   -1.2646   -1.2611 C   0  0  0  0  0  0  0  0  0  0  0  0
    1.8066    0.1341    0.5933 C   0  0  0  0  0  0  0  0  0  0  0  0
   -3.3172   -0.2577   -0.5515 C   0  0  0  0  0  0  0  0  0  0  0  0
    3.2278    0.3343    0.2685 C   0  0  0  0  0  0  0  0  0  0  0  0
    4.0912    0.7539    1.1887 C   0  0  0  0  0  0  0  0  0  0  0  0
   -0.6013   -1.0245    0.9606 H   0  0  0  0  0  0  0  0  0  0  0  0
   -0.9030    1.3958    1.0516 H   0  0  0  0  0  0  0  0  0  0  0  0
   -0.9723    1.5290   -0.7438 H   0  0  0  0  0  0  0  0  0  0  0  0
   -0.6198   -2.1107   -1.5710 H   0  0  0  0  0  0  0  0  0  0  0  0
    1.2900   -0.4789   -1.3426 H   0  0  0  0  0  0  0  0  0  0  0  0
   -3.3361    1.4434    0.6737 H   0  0  0  0  0  0  0  0  0  0  0  0
   -2.9886   -1.9498   -1.9464 H   0  0  0  0  0  0  0  0  0  0  0  0
   -4.3972   -0.3161   -0.5935 H   0  0  0  0  0  0  0  0  0  0  0  0
    3.5855    0.1389   -0.7358 H   0  0  0  0  0  0  0  0  0  0  0  0
    1.4586    0.3316    1.6014 H   0  0  0  0  0  0  0  0  0  0  0  0
    5.1323    0.8949    0.9290 H   0  0  0  0  0  0  0  0  0  0  0  0
    3.7737    0.9604    2.2035 H   0  0  0  0  0  0  0  0  0  0  0  0
  1  2  1  0
  1  3  1  0
  1  4  1  0
  1 11  1  0
  2  5  1  0
  2 12  1  0
  2 13  1  0
  3  6  2  0
  3 14  1  0
  4  7  2  3
  4 15  1  0
  5  8  2  0
  5 16  1  0
  6  8  1  0
  6 17  1  0
  7  9  1  0
  7 20  1  0
  8 18  1  0
  9 10  2  0
  9 19  1  0
 10 21  1  0
 10 22  1  0
M  END
