
     RDKit          3D

 15 15  0  0  0  0  0  0  0  0999 V2000
   -0.5971   -1.0319   -0.0438 C   0  0  0  0  0  0  0  0  0  0  0  0
   -1.9020   -0.2791    0.2604 C   0  0  0  0  0  0  0  0  0  0  0  0
    0.4195    0.0527   -0.0586 C   0  0  0  0  0  0  0  0  0  0  0  0
   -1.4948    1.1565    0.3876 C   0  0  0  0  0  0  0  0  0  0  0  0
   -0.1998    1.3304    0.2082 C   0  0  0  0  0  0  0  0  0  0  0  0
    2.9654   -0.2951   -0.5031 C   0  0  0  0  0  0  0  0  0  0  0  0
    1.6938   -0.1212   -0.2811 C   0  0  0  0  0  0  0  0  0  0  0  0
   -0.6473   -1.5323   -1.0353 H   0  0  0  0  0  0  0  0  0  0  0  0
   -0.3673   -1.7704    0.7547 H   0  0  0  0  0  0  0  0  0  0  0  0
   -2.6306   -0.3946   -0.5705 H   0  0  0  0  0  0  0  0  0  0  0  0
   -2.3516   -0.6318    1.2133 H   0  0  0  0  0  0  0  0  0  0  0  0
   -2.1807    1.9654    0.6025 H   0  0  0  0  0  0  0  0  0  0  0  0
    0.3067    2.2860    0.2561 H   0  0  0  0  0  0  0  0  0  0  0  0
    3.3496   -1.2875   -0.6953 H   0  0  0  0  0  0  0  0  0  0  0  0
    3.6363    0.5529   -0.4952 H   0  0  0  0  0  0  0  0  0  0  0  0
  1  3  1  0
  1  2  1  0
  1  8  1  0
  1  9  1  0
  2  4  1  0
  2 10  1  0
  2 11  1  0
  3  5  1  0
  3  7  2  0
  4  5  2  0
  4 12  1  0
  5 13  1  0
  6  7  2  0
  6 14  1  0
  6 15  1  0
M  END
