
     RDKit          3D

 20 21  0  0  0  0  0  0  0  0999 V2000
    2.0755    0.8911    0.3106 C   0  0  0  0  0  0  0  0  0  0  0  0
   -2.7602   -0.7795   -0.3795 C   0  0  0  0  0  0  0  0  0  0  0  0
    0.5995    0.8873    0.1728 C   0  0  0  0  0  0  0  0  0  0  0  0
   -1.6091    0.1336   -0.1410 C   0  0  0  0  0  0  0  0  0  0  0  0
   -0.2022   -0.2862   -0.0706 C   0  0  0  0  0  0  0  0  0  0  0  0
    2.5648   -0.4992    0.1561 C   0  0  0  0  0  0  0  0  0  0  0  0
   -1.6107    1.4452    0.0475 C   0  0  0  0  0  0  0  0  0  0  0  0
   -0.2462    1.9242    0.2434 C   0  0  0  0  0  0  0  0  0  0  0  0
    0.3554   -1.4599   -0.1876 C   0  0  0  0  0  0  0  0  0  0  0  0
    1.8060   -1.5421   -0.0646 C   0  0  0  0  0  0  0  0  0  0  0  0
    2.5657    1.5956   -0.3839 H   0  0  0  0  0  0  0  0  0  0  0  0
    2.3732    1.2228    1.3476 H   0  0  0  0  0  0  0  0  0  0  0  0
   -2.7718   -1.5887    0.3870 H   0  0  0  0  0  0  0  0  0  0  0  0
   -3.6939   -0.1942   -0.2512 H   0  0  0  0  0  0  0  0  0  0  0  0
   -2.6999   -1.2775   -1.3680 H   0  0  0  0  0  0  0  0  0  0  0  0
    3.6492   -0.6664    0.2329 H   0  0  0  0  0  0  0  0  0  0  0  0
    2.2679   -2.5199   -0.1623 H   0  0  0  0  0  0  0  0  0  0  0  0
    0.0345    2.9703    0.4200 H   0  0  0  0  0  0  0  0  0  0  0  0
   -0.2119   -2.3420   -0.3673 H   0  0  0  0  0  0  0  0  0  0  0  0
   -2.4857    2.0854    0.0583 H   0  0  0  0  0  0  0  0  0  0  0  0
  1  3  1  0
  1  6  1  0
  1 11  1  0
  1 12  1  0
  2  4  1  0
  2 13  1  0
  2 14  1  0
  2 15  1  0
  3  5  1  0
  3  8  2  0
  4  5  1  0
  4  7  2  0
  5  9  2  0
  6 10  2  0
  6 16  1  0
  7  8  1  0
  7 20  1  0
  8 18  1  0
  9 10  1  0
  9 19  1  0
 10 17  1  0
M  END
