
     RDKit          3D

 20 21  0  0  0  0  0  0  0  0999 V2000
    2.0698    0.8961    0.3140 C   0  0  0  0  0  0  0  0  0  0  0  0
   -2.7667   -0.7560   -0.3837 C   0  0  0  0  0  0  0  0  0  0  0  0
    0.5754    0.9092    0.1886 C   0  0  0  0  0  0  0  0  0  0  0  0
   -1.5904    0.1202   -0.0935 C   0  0  0  0  0  0  0  0  0  0  0  0
   -0.1960   -0.2897   -0.0184 C   0  0  0  0  0  0  0  0  0  0  0  0
    2.6174   -0.5162    0.1895 C   0  0  0  0  0  0  0  0  0  0  0  0
   -1.6206    1.4468    0.0346 C   0  0  0  0  0  0  0  0  0  0  0  0
   -0.2491    1.9468    0.2239 C   0  0  0  0  0  0  0  0  0  0  0  0
    0.3641   -1.4915   -0.1214 C   0  0  0  0  0  0  0  0  0  0  0  0
    1.8370   -1.5988   -0.0094 C   0  0  0  0  0  0  0  0  0  0  0  0
    2.5109    1.5276   -0.4855 H   0  0  0  0  0  0  0  0  0  0  0  0
    2.3589    1.3118    1.3021 H   0  0  0  0  0  0  0  0  0  0  0  0
   -2.6760   -1.7071    0.1809 H   0  0  0  0  0  0  0  0  0  0  0  0
   -3.7106   -0.2540   -0.0824 H   0  0  0  0  0  0  0  0  0  0  0  0
   -2.8025   -0.9780   -1.4704 H   0  0  0  0  0  0  0  0  0  0  0  0
    3.6887   -0.6540    0.2638 H   0  0  0  0  0  0  0  0  0  0  0  0
    2.2958   -2.5759   -0.0900 H   0  0  0  0  0  0  0  0  0  0  0  0
    0.0444    2.9797    0.3559 H   0  0  0  0  0  0  0  0  0  0  0  0
   -0.2384   -2.3754   -0.2845 H   0  0  0  0  0  0  0  0  0  0  0  0
   -2.5120    2.0586   -0.0141 H   0  0  0  0  0  0  0  0  0  0  0  0
  1  3  1  0
  1  6  1  0
  1 11  1  0
  1 12  1  0
  2  4  1  0
  2 13  1  0
  2 14  1  0
  2 15  1  0
  3  5  1  0
  3  8  2  0
  4  5  1  0
  4  7  2  0
  5  9  2  0
  6 10  2  0
  6 16  1  0
  7  8  1  0
  7 20  1  0
  8 18  1  0
  9 10  1  0
  9 19  1  0
 10 17  1  0
M  END
