
     RDKit          3D

 18 18  0  0  0  0  0  0  0  0999 V2000
   -0.2879    0.1695    0.1980 C   0  0  0  0  0  0  0  0  0  0  0  0
   -0.5719   -0.9742   -0.5155 C   0  0  0  0  0  0  0  0  0  0  0  0
   -1.3425    0.9886    0.5362 C   0  0  0  0  0  0  0  0  0  0  0  0
    1.0673    0.5254    0.5940 C   0  0  0  0  0  0  0  0  0  0  0  0
   -1.8843   -1.2884   -0.8811 C   0  0  0  0  0  0  0  0  0  0  0  0
   -2.6488    0.7102    0.1926 C   0  0  0  0  0  0  0  0  0  0  0  0
   -2.9217   -0.4505   -0.5294 C   0  0  0  0  0  0  0  0  0  0  0  0
    2.1288   -0.2104    0.3059 C   0  0  0  0  0  0  0  0  0  0  0  0
    3.4696    0.1850    0.7232 C   0  0  0  0  0  0  0  0  0  0  0  0
    4.5710    0.5292    1.0777 C   0  0  0  0  0  0  0  0  0  0  0  0
    1.2378    1.4347    1.1537 H   0  0  0  0  0  0  0  0  0  0  0  0
    0.2044   -1.6570   -0.8116 H   0  0  0  0  0  0  0  0  0  0  0  0
   -1.1246    1.8840    1.0943 H   0  0  0  0  0  0  0  0  0  0  0  0
   -2.1200   -2.1879   -1.4440 H   0  0  0  0  0  0  0  0  0  0  0  0
   -3.4642    1.3678    0.4684 H   0  0  0  0  0  0  0  0  0  0  0  0
   -3.9482   -0.7069   -0.8216 H   0  0  0  0  0  0  0  0  0  0  0  0
    2.0881   -1.1392   -0.2475 H   0  0  0  0  0  0  0  0  0  0  0  0
    5.5470    0.8200    1.3779 H   0  0  0  0  0  0  0  0  0  0  0  0
  1  2  2  0
  1  3  1  0
  1  4  1  0
  2  5  1  0
  2 12  1  0
  3  6  2  0
  3 13  1  0
  4  8  2  3
  4 11  1  0
  5  7  2  0
  5 14  1  0
  6  7  1  0
  6 15  1  0
  7 16  1  0
  8  9  1  0
  8 17  1  0
  9 10  3  0
 10 18  1  0
M  END
