
     RDKit          3D

 20 20  0  0  0  0  0  0  0  0999 V2000
   -0.7443    0.6693   -0.5970 C   0  0  0  0  0  0  0  0  0  0  0  0
    1.8264   -0.3064   -1.1687 C   0  0  0  0  0  0  0  0  0  0  0  0
   -0.2502   -0.5261    0.1269 C   0  0  0  0  0  0  0  0  0  0  0  0
    0.9640   -0.9657   -0.1608 C   0  0  0  0  0  0  0  0  0  0  0  0
   -2.1213    1.0272   -0.1546 C   0  0  0  0  0  0  0  0  0  0  0  0
   -1.0306   -1.2364    1.1330 C   0  0  0  0  0  0  0  0  0  0  0  0
   -2.7762    0.3372    0.7673 C   0  0  0  0  0  0  0  0  0  0  0  0
   -2.2406   -0.8158    1.4339 C   0  0  0  0  0  0  0  0  0  0  0  0
    3.0898    0.1688   -0.5547 C   0  0  0  0  0  0  0  0  0  0  0  0
    4.1235    0.5539   -0.0651 C   0  0  0  0  0  0  0  0  0  0  0  0
   -0.0874    1.5660   -0.4088 H   0  0  0  0  0  0  0  0  0  0  0  0
   -0.7455    0.4423   -1.6872 H   0  0  0  0  0  0  0  0  0  0  0  0
    2.0841   -0.9641   -2.0286 H   0  0  0  0  0  0  0  0  0  0  0  0
    1.2916    0.5752   -1.5385 H   0  0  0  0  0  0  0  0  0  0  0  0
    1.3880   -1.8412    0.3361 H   0  0  0  0  0  0  0  0  0  0  0  0
   -2.5731    1.8898   -0.6260 H   0  0  0  0  0  0  0  0  0  0  0  0
   -0.6187   -2.1114    1.6359 H   0  0  0  0  0  0  0  0  0  0  0  0
   -2.8414   -1.3159    2.1698 H   0  0  0  0  0  0  0  0  0  0  0  0
   -3.7703    0.6752    1.0208 H   0  0  0  0  0  0  0  0  0  0  0  0
    5.0324    0.8764    0.3661 H   0  0  0  0  0  0  0  0  0  0  0  0
  1  3  1  0
  1  5  1  0
  1 11  1  0
  1 12  1  0
  2  4  1  0
  2  9  1  0
  2 13  1  0
  2 14  1  0
  3  4  2  3
  3  6  1  0
  4 15  1  0
  5  7  2  0
  5 16  1  0
  6  8  2  0
  6 17  1  0
  7  8  1  0
  7 19  1  0
  8 18  1  0
  9 10  3  0
 10 20  1  0
M  END
