
     RDKit          3D

 20 21  0  0  0  0  0  0  0  0999 V2000
   -1.6623   -1.3106    0.0709 C   0  0  0  0  0  0  0  0  0  0  0  0
    3.3095   -0.1539   -0.2930 C   0  0  0  0  0  0  0  0  0  0  0  0
   -0.3592   -0.5876   -0.0035 C   0  0  0  0  0  0  0  0  0  0  0  0
    1.8206    0.0041   -0.1588 C   0  0  0  0  0  0  0  0  0  0  0  0
   -0.2305    0.8414    0.0569 C   0  0  0  0  0  0  0  0  0  0  0  0
   -2.7905   -0.3526    0.2144 C   0  0  0  0  0  0  0  0  0  0  0  0
    0.8480   -1.0985   -0.1314 C   0  0  0  0  0  0  0  0  0  0  0  0
    1.1888    1.1623   -0.0474 C   0  0  0  0  0  0  0  0  0  0  0  0
   -1.3013    1.5922    0.1852 C   0  0  0  0  0  0  0  0  0  0  0  0
   -2.6118    0.9587    0.2648 C   0  0  0  0  0  0  0  0  0  0  0  0
   -1.8281   -1.9069   -0.8574 H   0  0  0  0  0  0  0  0  0  0  0  0
   -1.6399   -2.0184    0.9167 H   0  0  0  0  0  0  0  0  0  0  0  0
    3.7313    0.6678   -0.8741 H   0  0  0  0  0  0  0  0  0  0  0  0
    3.5633   -1.1363   -0.7158 H   0  0  0  0  0  0  0  0  0  0  0  0
    3.7613   -0.1041    0.7316 H   0  0  0  0  0  0  0  0  0  0  0  0
   -3.7811   -0.7834    0.2770 H   0  0  0  0  0  0  0  0  0  0  0  0
    1.6186    2.1587   -0.0341 H   0  0  0  0  0  0  0  0  0  0  0  0
   -1.2384    2.6673    0.2336 H   0  0  0  0  0  0  0  0  0  0  0  0
    1.1049   -2.1641   -0.2064 H   0  0  0  0  0  0  0  0  0  0  0  0
   -3.5031    1.5642    0.3706 H   0  0  0  0  0  0  0  0  0  0  0  0
  1  3  1  0
  1  6  1  0
  1 11  1  0
  1 12  1  0
  2  4  1  0
  2 13  1  0
  2 14  1  0
  2 15  1  0
  3  5  1  0
  3  7  2  0
  4  8  2  0
  4  7  1  0
  5  8  1  0
  5  9  2  0
  6 10  2  0
  6 16  1  0
  7 19  1  0
  8 17  1  0
  9 10  1  0
  9 18  1  0
 10 20  1  0
M  END
