
     RDKit          3D

  8  8  0  0  0  0  0  0  0  0999 V2000
    0.1192    0.0263   -0.0337 C   0  0  0  0  0  0  0  0  0  0  0  0
   -0.8289   -0.7815    0.6510 C   0  0  0  0  0  0  0  0  0  0  0  0
   -1.2719    0.3171   -0.0567 C   0  0  0  0  0  0  0  0  0  0  0  0
    1.3649    0.3017   -0.3861 C   0  0  0  0  0  0  0  0  0  0  0  0
   -1.0450   -1.6377    1.2750 H   0  0  0  0  0  0  0  0  0  0  0  0
   -2.0868    0.9454   -0.3890 H   0  0  0  0  0  0  0  0  0  0  0  0
    1.5736    1.1598   -1.0104 H   0  0  0  0  0  0  0  0  0  0  0  0
    2.1749   -0.3311   -0.0500 H   0  0  0  0  0  0  0  0  0  0  0  0
  1  2  1  0
  1  3  1  0
  1  4  2  0
  2  3  2  0
  2  5  1  0
  3  6  1  0
  4  7  1  0
  4  8  1  0
M  END
