
     RDKit          3D

 34 34  0  0  0  0  0  0  0  0999 V2000
   -1.9763   -0.2570   -0.9201 C   0  0  0  0  0  0  0  0  0  0  0  0
   -0.9643    1.3869    0.4037 C   0  0  0  0  0  0  0  0  0  0  0  0
    0.1071    0.8325   -0.4946 C   0  0  0  0  0  0  0  0  0  0  0  0
   -2.1720    1.1876   -0.4951 C   0  0  0  0  0  0  0  0  0  0  0  0
   -0.4773   -0.5325   -0.7895 C   0  0  0  0  0  0  0  0  0  0  0  0
   -2.7605   -1.1049    0.0612 C   0  0  0  0  0  0  0  0  0  0  0  0
    3.5077   -0.2772    0.9487 C   0  0  0  0  0  0  0  0  0  0  0  0
   -0.8044    2.8188    0.7755 C   0  0  0  0  0  0  0  0  0  0  0  0
   -2.5962   -2.5411   -0.3197 C   0  0  0  0  0  0  0  0  0  0  0  0
    4.5118   -0.9334    0.0382 C   0  0  0  0  0  0  0  0  0  0  0  0
    1.4521    0.7956    0.0888 C   0  0  0  0  0  0  0  0  0  0  0  0
    2.1444   -0.3053    0.3552 C   0  0  0  0  0  0  0  0  0  0  0  0
   -2.3666   -0.4232   -1.9257 H   0  0  0  0  0  0  0  0  0  0  0  0
   -1.0594    0.7405    1.2993 H   0  0  0  0  0  0  0  0  0  0  0  0
    0.0887    1.3834   -1.4597 H   0  0  0  0  0  0  0  0  0  0  0  0
   -2.4771   -0.8815    1.1134 H   0  0  0  0  0  0  0  0  0  0  0  0
   -3.8371   -0.8564   -0.0297 H   0  0  0  0  0  0  0  0  0  0  0  0
   -0.0351   -0.9584   -1.6957 H   0  0  0  0  0  0  0  0  0  0  0  0
   -0.2850   -1.1877    0.1063 H   0  0  0  0  0  0  0  0  0  0  0  0
   -2.0251    1.8714   -1.3622 H   0  0  0  0  0  0  0  0  0  0  0  0
   -3.1230    1.3495    0.0278 H   0  0  0  0  0  0  0  0  0  0  0  0
    3.4923   -0.8593    1.8930 H   0  0  0  0  0  0  0  0  0  0  0  0
    3.8064    0.7566    1.2282 H   0  0  0  0  0  0  0  0  0  0  0  0
   -3.2774   -2.7497   -1.1752 H   0  0  0  0  0  0  0  0  0  0  0  0
   -2.8248   -3.2215    0.5298 H   0  0  0  0  0  0  0  0  0  0  0  0
   -1.5474   -2.7472   -0.6179 H   0  0  0  0  0  0  0  0  0  0  0  0
    5.4657   -0.3423   -0.0235 H   0  0  0  0  0  0  0  0  0  0  0  0
    4.1338   -0.9524   -1.0062 H   0  0  0  0  0  0  0  0  0  0  0  0
    4.7024   -1.9961    0.3252 H   0  0  0  0  0  0  0  0  0  0  0  0
   -0.4176    2.9425    1.8179 H   0  0  0  0  0  0  0  0  0  0  0  0
   -1.8262    3.2614    0.8069 H   0  0  0  0  0  0  0  0  0  0  0  0
   -0.2331    3.3738    0.0208 H   0  0  0  0  0  0  0  0  0  0  0  0
    1.7429   -1.3121    0.1482 H   0  0  0  0  0  0  0  0  0  0  0  0
    1.9309    1.7387    0.3266 H   0  0  0  0  0  0  0  0  0  0  0  0
  1  6  1  0
  1  4  1  0
  1 13  1  0
  1  5  1  0
  2  3  1  0
  2  4  1  0
  2 14  1  0
  2  8  1  0
  3 11  1  0
  3 15  1  0
  3  5  1  0
  4 20  1  0
  4 21  1  0
  5 18  1  0
  5 19  1  0
  6 16  1  0
  6 17  1  0
  6  9  1  0
  7 12  1  0
  7 22  1  0
  7 23  1  0
  7 10  1  0
  8 30  1  0
  8 31  1  0
  8 32  1  0
  9 24  1  0
  9 25  1  0
  9 26  1  0
 10 27  1  0
 10 28  1  0
 10 29  1  0
 11 34  1  0
 11 12  2  3
 12 33  1  0
M  END
