
     RDKit          3D

 17 17  0  0  0  0  0  0  0  0999 V2000
   -1.4743    0.2892    0.0097 C   0  0  0  0  0  0  0  0  0  0  0  0
   -0.4567    1.1749    0.7520 C   0  0  0  0  0  0  0  0  0  0  0  0
   -0.8762   -0.9134   -0.7432 C   0  0  0  0  0  0  0  0  0  0  0  0
    0.8295    1.3815   -0.0035 C   0  0  0  0  0  0  0  0  0  0  0  0
    0.2461   -1.5925   -0.0036 C   0  0  0  0  0  0  0  0  0  0  0  0
    1.7123    0.3927   -0.1969 C   0  0  0  0  0  0  0  0  0  0  0  0
    1.4394   -1.0110    0.1761 C   0  0  0  0  0  0  0  0  0  0  0  0
   -2.0306    0.9151   -0.7218 H   0  0  0  0  0  0  0  0  0  0  0  0
   -2.2165   -0.0820    0.7498 H   0  0  0  0  0  0  0  0  0  0  0  0
   -0.9226    2.1640    0.9507 H   0  0  0  0  0  0  0  0  0  0  0  0
   -0.2252    0.7229    1.7415 H   0  0  0  0  0  0  0  0  0  0  0  0
   -0.5037   -0.5799   -1.7367 H   0  0  0  0  0  0  0  0  0  0  0  0
   -1.6837   -1.6527   -0.9335 H   0  0  0  0  0  0  0  0  0  0  0  0
    1.0999    2.3880   -0.2984 H   0  0  0  0  0  0  0  0  0  0  0  0
    0.1199   -2.6273    0.2903 H   0  0  0  0  0  0  0  0  0  0  0  0
    2.2554   -1.6037    0.5694 H   0  0  0  0  0  0  0  0  0  0  0  0
    2.6867    0.6342   -0.6019 H   0  0  0  0  0  0  0  0  0  0  0  0
  1  2  1  0
  1  3  1  0
  1  8  1  0
  1  9  1  0
  2  4  1  0
  2 10  1  0
  2 11  1  0
  3  5  1  0
  3 12  1  0
  3 13  1  0
  4  6  2  0
  4 14  1  0
  5  7  2  0
  5 15  1  0
  6  7  1  0
  6 17  1  0
  7 16  1  0
M  END
