
     RDKit          3D

 34 34  0  0  0  0  0  0  0  0999 V2000
   -0.9877    0.4932    0.1709 C   0  0  0  0  0  0  0  0  0  0  0  0
   -2.1500   -0.4263    0.1670 C   0  0  0  0  0  0  0  0  0  0  0  0
    0.3288   -0.2173   -0.0899 C   0  0  0  0  0  0  0  0  0  0  0  0
   -2.0226   -0.5650    1.6752 C   0  0  0  0  0  0  0  0  0  0  0  0
   -1.1440    0.6673    1.6714 C   0  0  0  0  0  0  0  0  0  0  0  0
   -3.4722    0.1378   -0.2685 C   0  0  0  0  0  0  0  0  0  0  0  0
    1.4843    0.7882   -0.1044 C   0  0  0  0  0  0  0  0  0  0  0  0
    0.3828   -0.9176   -1.4131 C   0  0  0  0  0  0  0  0  0  0  0  0
   -3.4811    0.6736   -1.6536 C   0  0  0  0  0  0  0  0  0  0  0  0
    5.0529   -0.5529    0.3684 C   0  0  0  0  0  0  0  0  0  0  0  0
    2.7649    0.0733   -0.3611 C   0  0  0  0  0  0  0  0  0  0  0  0
    3.7457    0.1348    0.5538 C   0  0  0  0  0  0  0  0  0  0  0  0
   -1.9976   -1.3930   -0.3255 H   0  0  0  0  0  0  0  0  0  0  0  0
   -1.0945    1.4456   -0.3809 H   0  0  0  0  0  0  0  0  0  0  0  0
    0.5401   -0.9764    0.6894 H   0  0  0  0  0  0  0  0  0  0  0  0
   -3.6959    0.9821    0.4414 H   0  0  0  0  0  0  0  0  0  0  0  0
   -4.3041   -0.5828   -0.1436 H   0  0  0  0  0  0  0  0  0  0  0  0
   -2.9652   -0.4612    2.2406 H   0  0  0  0  0  0  0  0  0  0  0  0
   -1.4145   -1.4704    1.9463 H   0  0  0  0  0  0  0  0  0  0  0  0
   -1.6779    1.5957    1.9623 H   0  0  0  0  0  0  0  0  0  0  0  0
   -0.2001    0.5390    2.2599 H   0  0  0  0  0  0  0  0  0  0  0  0
    1.3268    1.5572   -0.8831 H   0  0  0  0  0  0  0  0  0  0  0  0
    1.5351    1.3178    0.8546 H   0  0  0  0  0  0  0  0  0  0  0  0
   -4.5598    0.6920   -1.9886 H   0  0  0  0  0  0  0  0  0  0  0  0
   -3.1700    1.7391   -1.7247 H   0  0  0  0  0  0  0  0  0  0  0  0
   -2.9686    0.0589   -2.4005 H   0  0  0  0  0  0  0  0  0  0  0  0
    1.2648   -1.6203   -1.3453 H   0  0  0  0  0  0  0  0  0  0  0  0
    0.6523   -0.1968   -2.2144 H   0  0  0  0  0  0  0  0  0  0  0  0
   -0.4663   -1.5618   -1.6467 H   0  0  0  0  0  0  0  0  0  0  0  0
    5.8614    0.1407    0.6471 H   0  0  0  0  0  0  0  0  0  0  0  0
    5.1938   -0.8797   -0.6900 H   0  0  0  0  0  0  0  0  0  0  0  0
    5.0455   -1.4157    1.0579 H   0  0  0  0  0  0  0  0  0  0  0  0
    3.6308    0.6971    1.4859 H   0  0  0  0  0  0  0  0  0  0  0  0
    2.9621   -0.4962   -1.2395 H   0  0  0  0  0  0  0  0  0  0  0  0
  1  2  1  0
  1 14  1  0
  1  5  1  0
  1  3  1  0
  2  6  1  0
  2 13  1  0
  2  4  1  0
  3  8  1  0
  3 15  1  0
  3  7  1  0
  4  5  1  0
  4 18  1  0
  4 19  1  0
  5 20  1  0
  5 21  1  0
  6 16  1  0
  6 17  1  0
  6  9  1  0
  7 22  1  0
  7 11  1  0
  7 23  1  0
  8 27  1  0
  8 28  1  0
  8 29  1  0
  9 24  1  0
  9 25  1  0
  9 26  1  0
 10 12  1  0
 10 31  1  0
 10 32  1  0
 10 30  1  0
 11 12  2  3
 11 34  1  0
 12 33  1  0
M  END
