
     RDKit          3D

 34 34  0  0  0  0  0  0  0  0999 V2000
   -0.9505    0.5948    0.3069 C   0  0  0  0  0  0  0  0  0  0  0  0
   -2.0643   -0.4599    0.4467 C   0  0  0  0  0  0  0  0  0  0  0  0
    0.4111    0.0366   -0.1845 C   0  0  0  0  0  0  0  0  0  0  0  0
   -2.1121   -0.2074    1.9530 C   0  0  0  0  0  0  0  0  0  0  0  0
   -1.0078    0.8306    1.8208 C   0  0  0  0  0  0  0  0  0  0  0  0
   -3.3835   -0.0868   -0.2555 C   0  0  0  0  0  0  0  0  0  0  0  0
    1.5072    1.1228   -0.0613 C   0  0  0  0  0  0  0  0  0  0  0  0
    0.3026   -0.4441   -1.6421 C   0  0  0  0  0  0  0  0  0  0  0  0
   -3.2927   -0.2742   -1.7667 C   0  0  0  0  0  0  0  0  0  0  0  0
    4.8647   -0.7808    0.2470 C   0  0  0  0  0  0  0  0  0  0  0  0
    2.8857    0.5794   -0.3311 C   0  0  0  0  0  0  0  0  0  0  0  0
    3.4906   -0.2559    0.5247 C   0  0  0  0  0  0  0  0  0  0  0  0
   -1.7408   -1.5020    0.2273 H   0  0  0  0  0  0  0  0  0  0  0  0
   -1.2668    1.5004   -0.2594 H   0  0  0  0  0  0  0  0  0  0  0  0
    0.6899   -0.8370    0.4471 H   0  0  0  0  0  0  0  0  0  0  0  0
   -3.6623    0.9672   -0.0341 H   0  0  0  0  0  0  0  0  0  0  0  0
   -4.1925   -0.7429    0.1324 H   0  0  0  0  0  0  0  0  0  0  0  0
   -3.0660    0.2366    2.3151 H   0  0  0  0  0  0  0  0  0  0  0  0
   -1.7877   -1.0945    2.5400 H   0  0  0  0  0  0  0  0  0  0  0  0
   -1.3585    1.8546    2.0754 H   0  0  0  0  0  0  0  0  0  0  0  0
   -0.0912    0.5263    2.3726 H   0  0  0  0  0  0  0  0  0  0  0  0
    1.2973    1.9441   -0.7811 H   0  0  0  0  0  0  0  0  0  0  0  0
    1.5044    1.5737    0.9539 H   0  0  0  0  0  0  0  0  0  0  0  0
   -4.2781   -0.0512   -2.2272 H   0  0  0  0  0  0  0  0  0  0  0  0
   -2.5399    0.4172   -2.1988 H   0  0  0  0  0  0  0  0  0  0  0  0
   -3.0171   -1.3221   -2.0106 H   0  0  0  0  0  0  0  0  0  0  0  0
    1.2743   -0.8518   -1.9916 H   0  0  0  0  0  0  0  0  0  0  0  0
    0.0070    0.3934   -2.3096 H   0  0  0  0  0  0  0  0  0  0  0  0
   -0.4447   -1.2581   -1.7344 H   0  0  0  0  0  0  0  0  0  0  0  0
    5.5841    0.0617    0.1712 H   0  0  0  0  0  0  0  0  0  0  0  0
    4.8656   -1.3548   -0.7037 H   0  0  0  0  0  0  0  0  0  0  0  0
    5.1831   -1.4519    1.0718 H   0  0  0  0  0  0  0  0  0  0  0  0
    2.9858   -0.5623    1.4370 H   0  0  0  0  0  0  0  0  0  0  0  0
    3.4030    0.8980   -1.2323 H   0  0  0  0  0  0  0  0  0  0  0  0
  1  2  1  0
  1 14  1  0
  1  5  1  0
  1  3  1  0
  2  6  1  0
  2 13  1  0
  2  4  1  0
  3  8  1  0
  3 15  1  0
  3  7  1  0
  4  5  1  0
  4 18  1  0
  4 19  1  0
  5 20  1  0
  5 21  1  0
  6 16  1  0
  6 17  1  0
  6  9  1  0
  7 22  1  0
  7 11  1  0
  7 23  1  0
  8 27  1  0
  8 28  1  0
  8 29  1  0
  9 24  1  0
  9 25  1  0
  9 26  1  0
 10 12  1  0
 10 31  1  0
 10 32  1  0
 10 30  1  0
 11 12  2  3
 11 34  1  0
 12 33  1  0
M  END
