
     RDKit          3D

 16 16  0  0  0  0  0  0  0  0999 V2000
   -0.0564   -1.2917    0.3248 C   0  0  0  0  0  0  0  0  0  0  0  0
   -1.1853   -0.5043   -0.3433 C   0  0  0  0  0  0  0  0  0  0  0  0
    1.3064   -0.7220   -0.0869 C   0  0  0  0  0  0  0  0  0  0  0  0
   -1.1378    0.9660    0.0894 C   0  0  0  0  0  0  0  0  0  0  0  0
    1.3581    0.7826    0.0176 C   0  0  0  0  0  0  0  0  0  0  0  0
    0.2526    1.5470    0.0065 C   0  0  0  0  0  0  0  0  0  0  0  0
   -0.1666   -1.2385    1.4305 H   0  0  0  0  0  0  0  0  0  0  0  0
   -0.1173   -2.3595    0.0229 H   0  0  0  0  0  0  0  0  0  0  0  0
   -2.1656   -0.9426   -0.0571 H   0  0  0  0  0  0  0  0  0  0  0  0
   -1.0859   -0.5731   -1.4492 H   0  0  0  0  0  0  0  0  0  0  0  0
    2.0969   -1.1606    0.5586 H   0  0  0  0  0  0  0  0  0  0  0  0
    1.5230   -1.0087   -1.1385 H   0  0  0  0  0  0  0  0  0  0  0  0
   -1.8210    1.5596   -0.5544 H   0  0  0  0  0  0  0  0  0  0  0  0
   -1.4927    1.0526    1.1389 H   0  0  0  0  0  0  0  0  0  0  0  0
    2.3296    1.2668   -0.0073 H   0  0  0  0  0  0  0  0  0  0  0  0
    0.3621    2.6265    0.0476 H   0  0  0  0  0  0  0  0  0  0  0  0
  1  3  1  0
  1  2  1  0
  1  7  1  0
  1  8  1  0
  2  4  1  0
  2  9  1  0
  2 10  1  0
  3  5  1  0
  3 11  1  0
  3 12  1  0
  4  6  1  0
  4 13  1  0
  4 14  1  0
  5  6  2  0
  5 15  1  0
  6 16  1  0
M  END
