
     RDKit          3D

 18 18  0  0  0  0  0  0  0  0999 V2000
    0.0192    0.7086   -0.0659 C   0  0  0  0  0  0  0  0  0  0  0  0
   -0.1144   -0.6984    0.0674 C   0  0  0  0  0  0  0  0  0  0  0  0
   -1.1229    1.5215    0.0202 C   0  0  0  0  0  0  0  0  0  0  0  0
   -1.3864   -1.2535    0.2832 C   0  0  0  0  0  0  0  0  0  0  0  0
   -2.3806    0.9529    0.2352 C   0  0  0  0  0  0  0  0  0  0  0  0
   -2.5120   -0.4302    0.3663 C   0  0  0  0  0  0  0  0  0  0  0  0
    2.3432    1.8406   -0.4699 C   0  0  0  0  0  0  0  0  0  0  0  0
    1.9500   -2.2992   -0.0776 C   0  0  0  0  0  0  0  0  0  0  0  0
    1.1854    1.2782   -0.2688 C   0  0  0  0  0  0  0  0  0  0  0  0
    0.9212   -1.5033   -0.0052 C   0  0  0  0  0  0  0  0  0  0  0  0
   -1.0453    2.5990   -0.0786 H   0  0  0  0  0  0  0  0  0  0  0  0
   -1.5130   -2.3257    0.3881 H   0  0  0  0  0  0  0  0  0  0  0  0
   -3.2558    1.5865    0.3004 H   0  0  0  0  0  0  0  0  0  0  0  0
   -3.4887   -0.8660    0.5328 H   0  0  0  0  0  0  0  0  0  0  0  0
    3.2342    1.2317   -0.5391 H   0  0  0  0  0  0  0  0  0  0  0  0
    2.4124    2.9153   -0.5673 H   0  0  0  0  0  0  0  0  0  0  0  0
    2.9376   -1.8910   -0.2432 H   0  0  0  0  0  0  0  0  0  0  0  0
    1.8158   -3.3670    0.0280 H   0  0  0  0  0  0  0  0  0  0  0  0
  1  2  1  0
  1  3  1  0
  1  9  2  0
  2  4  1  0
  2 10  2  0
  3  5  2  0
  3 11  1  0
  4  6  2  0
  4 12  1  0
  5  6  1  0
  5 13  1  0
  6 14  1  0
  7  9  2  0
  7 15  1  0
  7 16  1  0
  8 10  2  0
  8 17  1  0
  8 18  1  0
M  END
