
     RDKit          3D

 18 19  0  0  0  0  0  0  0  0999 V2000
   -0.1959    0.6801    0.0390 C   0  0  0  0  0  0  0  0  0  0  0  0
   -0.1122   -0.6967   -0.1017 C   0  0  0  0  0  0  0  0  0  0  0  0
    1.9488    0.1050    0.1120 C   0  0  0  0  0  0  0  0  0  0  0  0
    1.0077    1.2212    0.1715 C   0  0  0  0  0  0  0  0  0  0  0  0
    1.1493   -1.1050   -0.0662 C   0  0  0  0  0  0  0  0  0  0  0  0
   -1.4291    1.3347    0.0314 C   0  0  0  0  0  0  0  0  0  0  0  0
   -1.2578   -1.4796   -0.2562 C   0  0  0  0  0  0  0  0  0  0  0  0
   -2.5927    0.5624   -0.1232 C   0  0  0  0  0  0  0  0  0  0  0  0
   -2.5075   -0.8373   -0.2662 C   0  0  0  0  0  0  0  0  0  0  0  0
    3.2724    0.1764    0.2022 C   0  0  0  0  0  0  0  0  0  0  0  0
    1.2337    2.2728    0.2970 H   0  0  0  0  0  0  0  0  0  0  0  0
    1.5014   -2.1253   -0.1523 H   0  0  0  0  0  0  0  0  0  0  0  0
   -1.4926    2.4102    0.1414 H   0  0  0  0  0  0  0  0  0  0  0  0
   -1.1904   -2.5548   -0.3659 H   0  0  0  0  0  0  0  0  0  0  0  0
   -3.5610    1.0458   -0.1324 H   0  0  0  0  0  0  0  0  0  0  0  0
   -3.4108   -1.4216   -0.3845 H   0  0  0  0  0  0  0  0  0  0  0  0
    3.8748   -0.7210    0.1447 H   0  0  0  0  0  0  0  0  0  0  0  0
    3.7620    1.1327    0.3341 H   0  0  0  0  0  0  0  0  0  0  0  0
  1  2  1  0
  1  4  2  0
  1  6  1  0
  2  5  2  0
  2  7  1  0
  3  4  1  0
  3  5  1  0
  3 10  2  0
  4 11  1  0
  5 12  1  0
  6  8  2  0
  6 13  1  0
  7  9  2  0
  7 14  1  0
  8  9  1  0
  8 15  1  0
  9 16  1  0
 10 17  1  0
 10 18  1  0
M  END
