
     RDKit          3D

 32 32  0  0  0  0  0  0  0  0999 V2000
   -0.1795    0.1730   -0.5517 C   0  0  0  0  0  0  0  0  0  0  0  0
   -0.6510    1.4640    0.0035 C   0  0  0  0  0  0  0  0  0  0  0  0
   -2.4266   -0.9164   -0.1272 C   0  0  0  0  0  0  0  0  0  0  0  0
   -0.9388   -1.0502   -0.1372 C   0  0  0  0  0  0  0  0  0  0  0  0
    3.6159   -0.5222   -0.7637 C   0  0  0  0  0  0  0  0  0  0  0  0
   -2.9634   -1.9326    0.8842 C   0  0  0  0  0  0  0  0  0  0  0  0
   -0.5062    2.5813   -1.0355 C   0  0  0  0  0  0  0  0  0  0  0  0
    3.8201   -0.5868    0.7382 C   0  0  0  0  0  0  0  0  0  0  0  0
   -2.8765    0.4238    0.3559 C   0  0  0  0  0  0  0  0  0  0  0  0
   -2.0709    1.4793    0.4087 C   0  0  0  0  0  0  0  0  0  0  0  0
    1.2421   -0.0954   -0.1847 C   0  0  0  0  0  0  0  0  0  0  0  0
    2.2077   -0.2572   -1.0768 C   0  0  0  0  0  0  0  0  0  0  0  0
   -2.8623   -1.1536   -1.1107 H   0  0  0  0  0  0  0  0  0  0  0  0
   -0.0547    1.7325    0.9170 H   0  0  0  0  0  0  0  0  0  0  0  0
   -0.1899    0.2682   -1.6695 H   0  0  0  0  0  0  0  0  0  0  0  0
   -0.6743   -1.8638   -0.8481 H   0  0  0  0  0  0  0  0  0  0  0  0
   -0.5950   -1.3623    0.8841 H   0  0  0  0  0  0  0  0  0  0  0  0
    4.0163   -1.4326   -1.2454 H   0  0  0  0  0  0  0  0  0  0  0  0
    4.2216    0.3221   -1.1834 H   0  0  0  0  0  0  0  0  0  0  0  0
   -1.3142    2.4129   -1.8037 H   0  0  0  0  0  0  0  0  0  0  0  0
   -3.9908   -1.6759    1.1396 H   0  0  0  0  0  0  0  0  0  0  0  0
   -2.2583   -1.8362    1.7578 H   0  0  0  0  0  0  0  0  0  0  0  0
   -2.8702   -2.9602    0.4480 H   0  0  0  0  0  0  0  0  0  0  0  0
    0.4463    2.5228   -1.5793 H   0  0  0  0  0  0  0  0  0  0  0  0
   -0.6811    3.5655   -0.5603 H   0  0  0  0  0  0  0  0  0  0  0  0
    3.6206    0.4213    1.1611 H   0  0  0  0  0  0  0  0  0  0  0  0
    3.0890   -1.3412    1.1380 H   0  0  0  0  0  0  0  0  0  0  0  0
    4.8533   -0.9507    0.9704 H   0  0  0  0  0  0  0  0  0  0  0  0
   -3.9286    0.4914    0.6711 H   0  0  0  0  0  0  0  0  0  0  0  0
   -2.4751    2.4184    0.7722 H   0  0  0  0  0  0  0  0  0  0  0  0
    1.9243   -0.1861   -2.1268 H   0  0  0  0  0  0  0  0  0  0  0  0
    1.4501   -0.1529    0.8865 H   0  0  0  0  0  0  0  0  0  0  0  0
  1 11  1  0
  1 15  1  0
  1  4  1  0
  1  2  1  0
  2  7  1  0
  2 14  1  0
  2 10  1  0
  3  6  1  0
  3 13  1  0
  3  9  1  0
  3  4  1  0
  4 16  1  0
  4 17  1  0
  5 12  1  0
  5 18  1  0
  5 19  1  0
  5  8  1  0
  6 21  1  0
  6 22  1  0
  6 23  1  0
  7 24  1  0
  7 25  1  0
  7 20  1  0
  8 26  1  0
  8 27  1  0
  8 28  1  0
  9 29  1  0
  9 10  2  0
 10 30  1  0
 11 12  2  3
 11 32  1  0
 12 31  1  0
M  END
