
     RDKit          3D

 17 17  0  0  0  0  0  0  0  0999 V2000
   -1.3437   -0.7284    0.0078 C   0  0  0  0  0  0  0  0  0  0  0  0
    0.9676   -0.2383   -1.1968 C   0  0  0  0  0  0  0  0  0  0  0  0
   -2.2830    0.4339    0.3146 C   0  0  0  0  0  0  0  0  0  0  0  0
    0.0890   -0.2826    0.0115 C   0  0  0  0  0  0  0  0  0  0  0  0
    2.2493    0.2441   -0.6016 C   0  0  0  0  0  0  0  0  0  0  0  0
    0.7595    0.0936    1.0916 C   0  0  0  0  0  0  0  0  0  0  0  0
    2.1166    0.4279    0.7021 C   0  0  0  0  0  0  0  0  0  0  0  0
   -1.4848   -1.5333    0.7609 H   0  0  0  0  0  0  0  0  0  0  0  0
   -1.6000   -1.1423   -0.9912 H   0  0  0  0  0  0  0  0  0  0  0  0
    1.0932   -1.2509   -1.6352 H   0  0  0  0  0  0  0  0  0  0  0  0
    0.5803    0.4868   -1.9434 H   0  0  0  0  0  0  0  0  0  0  0  0
   -2.1493    1.2440   -0.4341 H   0  0  0  0  0  0  0  0  0  0  0  0
   -2.0841    0.8366    1.3306 H   0  0  0  0  0  0  0  0  0  0  0  0
   -3.3351    0.0816    0.2738 H   0  0  0  0  0  0  0  0  0  0  0  0
    3.1647    0.4190   -1.1512 H   0  0  0  0  0  0  0  0  0  0  0  0
    2.9003    0.7709    1.3642 H   0  0  0  0  0  0  0  0  0  0  0  0
    0.3596    0.1374    2.0964 H   0  0  0  0  0  0  0  0  0  0  0  0
  1  3  1  0
  1  4  1  0
  1  8  1  0
  1  9  1  0
  2  4  1  0
  2  5  1  0
  2 10  1  0
  2 11  1  0
  3 12  1  0
  3 13  1  0
  3 14  1  0
  4  6  2  0
  5  7  2  0
  5 15  1  0
  6  7  1  0
  6 17  1  0
  7 16  1  0
M  END
