
     RDKit          3D

 19 20  0  0  0  0  0  0  0  0999 V2000
   -0.2451   -0.6764    0.3268 C   0  0  0  0  0  0  0  0  0  0  0  0
   -1.6924   -0.8992   -0.1469 C   0  0  0  0  0  0  0  0  0  0  0  0
    0.8546   -1.1864   -0.6251 C   0  0  0  0  0  0  0  0  0  0  0  0
   -0.1667    0.8068    0.4523 C   0  0  0  0  0  0  0  0  0  0  0  0
   -2.3508    0.4363    0.0546 C   0  0  0  0  0  0  0  0  0  0  0  0
    2.1825   -0.5504   -0.2693 C   0  0  0  0  0  0  0  0  0  0  0  0
   -1.4884    1.3856    0.3779 C   0  0  0  0  0  0  0  0  0  0  0  0
    0.9929    1.4691    0.4445 C   0  0  0  0  0  0  0  0  0  0  0  0
    2.2375    0.7108    0.1929 C   0  0  0  0  0  0  0  0  0  0  0  0
   -0.1039   -1.1264    1.3352 H   0  0  0  0  0  0  0  0  0  0  0  0
   -1.7419   -1.1763   -1.2219 H   0  0  0  0  0  0  0  0  0  0  0  0
   -2.1972   -1.6754    0.4669 H   0  0  0  0  0  0  0  0  0  0  0  0
    0.9341   -2.2919   -0.5543 H   0  0  0  0  0  0  0  0  0  0  0  0
    0.6091   -0.9150   -1.6749 H   0  0  0  0  0  0  0  0  0  0  0  0
   -3.4041    0.6220   -0.1092 H   0  0  0  0  0  0  0  0  0  0  0  0
    3.0997   -1.0960   -0.4507 H   0  0  0  0  0  0  0  0  0  0  0  0
    1.0202    2.5474    0.5360 H   0  0  0  0  0  0  0  0  0  0  0  0
   -1.7361    2.4319    0.5015 H   0  0  0  0  0  0  0  0  0  0  0  0
    3.1960    1.1834    0.3637 H   0  0  0  0  0  0  0  0  0  0  0  0
  1  2  1  0
  1  4  1  0
  1  3  1  0
  1 10  1  0
  2  5  1  0
  2 11  1  0
  2 12  1  0
  3  6  1  0
  3 13  1  0
  3 14  1  0
  4  7  1  0
  4  8  2  0
  5  7  2  0
  5 15  1  0
  6  9  2  0
  6 16  1  0
  7 18  1  0
  8  9  1  0
  8 17  1  0
  9 19  1  0
M  END
