
     RDKit          3D

 19 20  0  0  0  0  0  0  0  0999 V2000
   -0.2986   -0.6301    0.2819 C   0  0  0  0  0  0  0  0  0  0  0  0
   -1.5211   -0.6087   -0.6087 C   0  0  0  0  0  0  0  0  0  0  0  0
    0.8665   -1.3880   -0.1617 C   0  0  0  0  0  0  0  0  0  0  0  0
   -0.1181    0.8618    0.4169 C   0  0  0  0  0  0  0  0  0  0  0  0
   -2.3313    0.4256    0.1422 C   0  0  0  0  0  0  0  0  0  0  0  0
    2.0931   -0.5834   -0.3400 C   0  0  0  0  0  0  0  0  0  0  0  0
   -1.5051    1.2940    0.7476 C   0  0  0  0  0  0  0  0  0  0  0  0
    1.0024    1.4884    0.2184 C   0  0  0  0  0  0  0  0  0  0  0  0
    2.1739    0.7202   -0.1757 C   0  0  0  0  0  0  0  0  0  0  0  0
   -0.6631   -0.9596    1.3028 H   0  0  0  0  0  0  0  0  0  0  0  0
   -1.2796   -0.2335   -1.6216 H   0  0  0  0  0  0  0  0  0  0  0  0
   -2.0654   -1.5796   -0.6064 H   0  0  0  0  0  0  0  0  0  0  0  0
    1.0364   -2.2195    0.5926 H   0  0  0  0  0  0  0  0  0  0  0  0
    0.6453   -1.9013   -1.1463 H   0  0  0  0  0  0  0  0  0  0  0  0
   -3.4095    0.4942    0.2090 H   0  0  0  0  0  0  0  0  0  0  0  0
    2.9949   -1.1437   -0.6333 H   0  0  0  0  0  0  0  0  0  0  0  0
    1.0102    2.5666    0.3586 H   0  0  0  0  0  0  0  0  0  0  0  0
   -1.7613    2.1537    1.3589 H   0  0  0  0  0  0  0  0  0  0  0  0
    3.1304    1.2428   -0.3352 H   0  0  0  0  0  0  0  0  0  0  0  0
  1  2  1  0
  1  4  1  0
  1  3  1  0
  1 10  1  0
  2  5  1  0
  2 11  1  0
  2 12  1  0
  3  6  1  0
  3 13  1  0
  3 14  1  0
  4  7  1  0
  4  8  2  0
  5  7  2  0
  5 15  1  0
  6  9  2  0
  6 16  1  0
  7 18  1  0
  8  9  1  0
  8 17  1  0
  9 19  1  0
M  END
