
     RDKit          3D

 21 21  0  0  0  0  0  0  0  0999 V2000
    2.0915    0.3246   -0.3108 C   0  0  0  0  0  0  0  0  0  0  0  0
   -1.3904   -1.1015    0.6650 C   0  0  0  0  0  0  0  0  0  0  0  0
    3.4388   -0.3446   -0.0566 C   0  0  0  0  0  0  0  0  0  0  0  0
   -0.3408   -0.1616    0.1069 C   0  0  0  0  0  0  0  0  0  0  0  0
    0.9532   -0.5183    0.2031 C   0  0  0  0  0  0  0  0  0  0  0  0
   -2.8044   -0.6047    0.5045 C   0  0  0  0  0  0  0  0  0  0  0  0
   -0.7610    1.1146   -0.5248 C   0  0  0  0  0  0  0  0  0  0  0  0
   -3.0998    0.5600   -0.0780 C   0  0  0  0  0  0  0  0  0  0  0  0
   -2.0502    1.4430   -0.6067 C   0  0  0  0  0  0  0  0  0  0  0  0
    1.9727    0.4810   -1.4048 H   0  0  0  0  0  0  0  0  0  0  0  0
    2.0823    1.3115    0.2002 H   0  0  0  0  0  0  0  0  0  0  0  0
   -1.1988   -1.2582    1.7483 H   0  0  0  0  0  0  0  0  0  0  0  0
   -1.3078   -2.0840    0.1525 H   0  0  0  0  0  0  0  0  0  0  0  0
    4.2540    0.3009   -0.4463 H   0  0  0  0  0  0  0  0  0  0  0  0
    3.5949   -0.4950    1.0332 H   0  0  0  0  0  0  0  0  0  0  0  0
    3.4851   -1.3267   -0.5741 H   0  0  0  0  0  0  0  0  0  0  0  0
    1.1935   -1.4650    0.6766 H   0  0  0  0  0  0  0  0  0  0  0  0
   -3.6110   -1.2224    0.8792 H   0  0  0  0  0  0  0  0  0  0  0  0
   -0.0315    1.8031   -0.9309 H   0  0  0  0  0  0  0  0  0  0  0  0
   -2.3353    2.3784   -1.0713 H   0  0  0  0  0  0  0  0  0  0  0  0
   -4.1349    0.8650   -0.1652 H   0  0  0  0  0  0  0  0  0  0  0  0
  1  3  1  0
  1  5  1  0
  1 10  1  0
  1 11  1  0
  2  4  1  0
  2  6  1  0
  2 12  1  0
  2 13  1  0
  3 14  1  0
  3 15  1  0
  3 16  1  0
  4  5  2  3
  4  7  1  0
  5 17  1  0
  6  8  2  0
  6 18  1  0
  7  9  2  0
  7 19  1  0
  8  9  1  0
  8 21  1  0
  9 20  1  0
M  END
