
     RDKit          3D

 21 21  0  0  0  0  0  0  0  0999 V2000
    2.0316   -0.0289   -0.8041 C   0  0  0  0  0  0  0  0  0  0  0  0
   -1.3649   -1.2276    0.4178 C   0  0  0  0  0  0  0  0  0  0  0  0
    3.1961   -0.0920    0.1773 C   0  0  0  0  0  0  0  0  0  0  0  0
   -0.3504   -0.2556   -0.0826 C   0  0  0  0  0  0  0  0  0  0  0  0
    0.8629   -0.7708   -0.3112 C   0  0  0  0  0  0  0  0  0  0  0  0
   -2.6263   -0.5202    0.6175 C   0  0  0  0  0  0  0  0  0  0  0  0
   -0.6483    1.1526   -0.3105 C   0  0  0  0  0  0  0  0  0  0  0  0
   -2.8833    0.7458    0.4101 C   0  0  0  0  0  0  0  0  0  0  0  0
   -1.8720    1.6651   -0.0787 C   0  0  0  0  0  0  0  0  0  0  0  0
    2.3564   -0.3570   -1.8172 H   0  0  0  0  0  0  0  0  0  0  0  0
    1.7857    1.0340   -0.9007 H   0  0  0  0  0  0  0  0  0  0  0  0
   -1.0063   -1.7554    1.3303 H   0  0  0  0  0  0  0  0  0  0  0  0
   -1.4948   -1.9763   -0.4118 H   0  0  0  0  0  0  0  0  0  0  0  0
    3.7159    0.8836    0.2546 H   0  0  0  0  0  0  0  0  0  0  0  0
    2.7871   -0.3598    1.1821 H   0  0  0  0  0  0  0  0  0  0  0  0
    3.8746   -0.8984   -0.2274 H   0  0  0  0  0  0  0  0  0  0  0  0
    1.0212   -1.8333   -0.1219 H   0  0  0  0  0  0  0  0  0  0  0  0
   -3.4763   -1.1219    0.9906 H   0  0  0  0  0  0  0  0  0  0  0  0
    0.0684    1.8553   -0.6694 H   0  0  0  0  0  0  0  0  0  0  0  0
   -2.0999    2.7050   -0.2445 H   0  0  0  0  0  0  0  0  0  0  0  0
   -3.8772    1.1558    0.5999 H   0  0  0  0  0  0  0  0  0  0  0  0
  1  3  1  0
  1  5  1  0
  1 10  1  0
  1 11  1  0
  2  4  1  0
  2  6  1  0
  2 12  1  0
  2 13  1  0
  3 14  1  0
  3 15  1  0
  3 16  1  0
  4  5  2  3
  4  7  1  0
  5 17  1  0
  6  8  2  0
  6 18  1  0
  7  9  2  0
  7 19  1  0
  8  9  1  0
  8 21  1  0
  9 20  1  0
M  END
