
     RDKit          3D

 34 34  0  0  0  0  0  0  0  0999 V2000
    0.2958   -0.3337   -0.8951 C   0  0  0  0  0  0  0  0  0  0  0  0
    2.3529   -0.1864   -0.6602 C   0  0  0  0  0  0  0  0  0  0  0  0
   -0.9990   -0.4699   -0.1355 C   0  0  0  0  0  0  0  0  0  0  0  0
    1.3691   -1.3297   -0.5015 C   0  0  0  0  0  0  0  0  0  0  0  0
    1.2045    0.7437   -0.3228 C   0  0  0  0  0  0  0  0  0  0  0  0
    3.4846   -0.1869    0.3282 C   0  0  0  0  0  0  0  0  0  0  0  0
   -1.5964   -1.8422   -0.3509 C   0  0  0  0  0  0  0  0  0  0  0  0
    4.4102    0.9929    0.0861 C   0  0  0  0  0  0  0  0  0  0  0  0
   -2.9027   -1.9671    0.4208 C   0  0  0  0  0  0  0  0  0  0  0  0
   -3.4389    2.4604   -0.4972 C   0  0  0  0  0  0  0  0  0  0  0  0
   -1.9523    0.5282   -0.7063 C   0  0  0  0  0  0  0  0  0  0  0  0
   -2.4749    1.4465    0.0667 C   0  0  0  0  0  0  0  0  0  0  0  0
    2.7192   -0.1277   -1.6905 H   0  0  0  0  0  0  0  0  0  0  0  0
    0.1885   -0.2907   -1.9827 H   0  0  0  0  0  0  0  0  0  0  0  0
   -0.8544   -0.2897    0.9284 H   0  0  0  0  0  0  0  0  0  0  0  0
    3.1616   -0.2511    1.3725 H   0  0  0  0  0  0  0  0  0  0  0  0
    4.0652   -1.1261    0.1238 H   0  0  0  0  0  0  0  0  0  0  0  0
    1.5133   -2.1733   -1.1956 H   0  0  0  0  0  0  0  0  0  0  0  0
    1.3187   -1.5878    0.5725 H   0  0  0  0  0  0  0  0  0  0  0  0
   -1.8456   -2.0144   -1.4186 H   0  0  0  0  0  0  0  0  0  0  0  0
   -0.8981   -2.6556   -0.0745 H   0  0  0  0  0  0  0  0  0  0  0  0
    1.0864    0.8184    0.7749 H   0  0  0  0  0  0  0  0  0  0  0  0
    1.1902    1.7037   -0.8675 H   0  0  0  0  0  0  0  0  0  0  0  0
    4.2790    1.3553   -0.9565 H   0  0  0  0  0  0  0  0  0  0  0  0
    5.4715    0.7292    0.2173 H   0  0  0  0  0  0  0  0  0  0  0  0
    4.0992    1.8606    0.7219 H   0  0  0  0  0  0  0  0  0  0  0  0
   -3.0331   -1.0616    1.0343 H   0  0  0  0  0  0  0  0  0  0  0  0
   -3.7827   -2.0036   -0.2534 H   0  0  0  0  0  0  0  0  0  0  0  0
   -2.8889   -2.9028    0.9988 H   0  0  0  0  0  0  0  0  0  0  0  0
   -3.7155    3.1965    0.2770 H   0  0  0  0  0  0  0  0  0  0  0  0
   -3.0032    3.0053   -1.3458 H   0  0  0  0  0  0  0  0  0  0  0  0
   -4.3899    1.9707   -0.8017 H   0  0  0  0  0  0  0  0  0  0  0  0
   -2.2111    0.4932   -1.7567 H   0  0  0  0  0  0  0  0  0  0  0  0
   -2.2234    1.4958    1.1320 H   0  0  0  0  0  0  0  0  0  0  0  0
  1  4  1  0
  1  5  1  0
  1 14  1  0
  1  3  1  0
  2  6  1  0
  2 13  1  0
  2  5  1  0
  2  4  1  0
  3  7  1  0
  3 15  1  0
  3 11  1  0
  4 18  1  0
  4 19  1  0
  5 22  1  0
  5 23  1  0
  6 16  1  0
  6 17  1  0
  6  8  1  0
  7 20  1  0
  7 21  1  0
  7  9  1  0
  8 24  1  0
  8 25  1  0
  8 26  1  0
  9 27  1  0
  9 28  1  0
  9 29  1  0
 10 12  1  0
 10 30  1  0
 10 31  1  0
 10 32  1  0
 11 33  1  0
 11 12  2  3
 12 34  1  0
M  END
