
     RDKit          3D

 32 32  0  0  0  0  0  0  0  0999 V2000
   -0.6598   -0.8746    0.1101 C   0  0  0  0  0  0  0  0  0  0  0  0
   -1.1616   -0.1803   -1.1676 C   0  0  0  0  0  0  0  0  0  0  0  0
    0.8811   -0.9838    0.1956 C   0  0  0  0  0  0  0  0  0  0  0  0
   -1.8548   -1.4743   -1.5933 C   0  0  0  0  0  0  0  0  0  0  0  0
   -1.3477   -2.1678   -0.3359 C   0  0  0  0  0  0  0  0  0  0  0  0
   -2.1465    0.9750   -0.9143 C   0  0  0  0  0  0  0  0  0  0  0  0
   -1.4254    2.2242   -0.4153 C   0  0  0  0  0  0  0  0  0  0  0  0
    2.7108    2.4078   -0.2414 C   0  0  0  0  0  0  0  0  0  0  0  0
    1.4875    0.3770    0.4491 C   0  0  0  0  0  0  0  0  0  0  0  0
    1.3087   -1.9516    1.2766 C   0  0  0  0  0  0  0  0  0  0  0  0
    2.1674    1.0371   -0.4993 C   0  0  0  0  0  0  0  0  0  0  0  0
    0.9862   -1.7938    2.5664 C   0  0  0  0  0  0  0  0  0  0  0  0
   -0.3542    0.0989   -1.8818 H   0  0  0  0  0  0  0  0  0  0  0  0
   -1.1180   -0.4688    1.0405 H   0  0  0  0  0  0  0  0  0  0  0  0
    1.2646   -1.3879   -0.7695 H   0  0  0  0  0  0  0  0  0  0  0  0
   -2.9211    0.6774   -0.1733 H   0  0  0  0  0  0  0  0  0  0  0  0
   -2.6613    1.2216   -1.8679 H   0  0  0  0  0  0  0  0  0  0  0  0
   -2.9653   -1.4109   -1.6206 H   0  0  0  0  0  0  0  0  0  0  0  0
   -1.4133   -1.9051   -2.5186 H   0  0  0  0  0  0  0  0  0  0  0  0
   -0.6488   -3.0013   -0.5696 H   0  0  0  0  0  0  0  0  0  0  0  0
   -2.1749   -2.4621    0.3464 H   0  0  0  0  0  0  0  0  0  0  0  0
   -0.9560    2.0334    0.5723 H   0  0  0  0  0  0  0  0  0  0  0  0
   -2.1549    3.0536   -0.3030 H   0  0  0  0  0  0  0  0  0  0  0  0
   -0.6432    2.5349   -1.1403 H   0  0  0  0  0  0  0  0  0  0  0  0
    3.2310    2.7814   -1.1479 H   0  0  0  0  0  0  0  0  0  0  0  0
    1.8812    3.1027    0.0084 H   0  0  0  0  0  0  0  0  0  0  0  0
    3.4336    2.3764    0.6010 H   0  0  0  0  0  0  0  0  0  0  0  0
    2.3243    0.5884   -1.4762 H   0  0  0  0  0  0  0  0  0  0  0  0
    1.3152    0.8563    1.4097 H   0  0  0  0  0  0  0  0  0  0  0  0
    1.9012   -2.8162    0.9918 H   0  0  0  0  0  0  0  0  0  0  0  0
    1.3178   -2.5210    3.3002 H   0  0  0  0  0  0  0  0  0  0  0  0
    0.3962   -0.9466    2.9006 H   0  0  0  0  0  0  0  0  0  0  0  0
  1  2  1  0
  1 14  1  0
  1  5  1  0
  1  3  1  0
  2  6  1  0
  2 13  1  0
  2  4  1  0
  3  9  1  0
  3 15  1  0
  3 10  1  0
  4  5  1  0
  4 18  1  0
  4 19  1  0
  5 20  1  0
  5 21  1  0
  6 16  1  0
  6 17  1  0
  6  7  1  0
  7 22  1  0
  7 23  1  0
  7 24  1  0
  8 11  1  0
  8 25  1  0
  8 26  1  0
  8 27  1  0
  9 11  2  3
  9 29  1  0
 10 30  1  0
 10 12  2  0
 11 28  1  0
 12 31  1  0
 12 32  1  0
M  END
