
     RDKit          3D

 32 32  0  0  0  0  0  0  0  0999 V2000
   -0.6425   -0.7948    0.0071 C   0  0  0  0  0  0  0  0  0  0  0  0
   -1.5774    0.1503   -0.6742 C   0  0  0  0  0  0  0  0  0  0  0  0
    0.7997   -0.8030   -0.5613 C   0  0  0  0  0  0  0  0  0  0  0  0
   -2.3973   -0.9918   -1.2574 C   0  0  0  0  0  0  0  0  0  0  0  0
   -1.4015   -1.9413   -0.6261 C   0  0  0  0  0  0  0  0  0  0  0  0
   -2.4735    0.9661    0.2338 C   0  0  0  0  0  0  0  0  0  0  0  0
   -1.7354    1.8401    1.1922 C   0  0  0  0  0  0  0  0  0  0  0  0
    2.8154    2.4640   -0.0530 C   0  0  0  0  0  0  0  0  0  0  0  0
    1.4112    0.4929   -0.4551 C   0  0  0  0  0  0  0  0  0  0  0  0
    1.3992   -2.0191   -0.0652 C   0  0  0  0  0  0  0  0  0  0  0  0
    2.5240    0.9605    0.0359 C   0  0  0  0  0  0  0  0  0  0  0  0
    2.5089   -2.3130    0.5474 C   0  0  0  0  0  0  0  0  0  0  0  0
   -1.1208    0.7640   -1.4656 H   0  0  0  0  0  0  0  0  0  0  0  0
   -0.7005   -0.8059    1.0937 H   0  0  0  0  0  0  0  0  0  0  0  0
    0.6195   -0.9441   -1.7014 H   0  0  0  0  0  0  0  0  0  0  0  0
   -3.2411    0.3240    0.7488 H   0  0  0  0  0  0  0  0  0  0  0  0
   -3.0907    1.6028   -0.4627 H   0  0  0  0  0  0  0  0  0  0  0  0
   -3.4107   -1.1163   -0.8585 H   0  0  0  0  0  0  0  0  0  0  0  0
   -2.4173   -0.9762   -2.3613 H   0  0  0  0  0  0  0  0  0  0  0  0
   -0.8784   -2.5077   -1.4136 H   0  0  0  0  0  0  0  0  0  0  0  0
   -1.8747   -2.6490    0.1029 H   0  0  0  0  0  0  0  0  0  0  0  0
   -1.6261    1.3351    2.1873 H   0  0  0  0  0  0  0  0  0  0  0  0
   -2.3346    2.7709    1.3114 H   0  0  0  0  0  0  0  0  0  0  0  0
   -0.7000    2.0378    0.8486 H   0  0  0  0  0  0  0  0  0  0  0  0
    3.8313    2.5798   -0.4671 H   0  0  0  0  0  0  0  0  0  0  0  0
    2.0914    2.9495   -0.7298 H   0  0  0  0  0  0  0  0  0  0  0  0
    2.7948    2.8773    0.9600 H   0  0  0  0  0  0  0  0  0  0  0  0
    3.3197    0.4297    0.5232 H   0  0  0  0  0  0  0  0  0  0  0  0
    0.7616    1.3229   -0.9155 H   0  0  0  0  0  0  0  0  0  0  0  0
    0.7463   -2.9379   -0.2574 H   0  0  0  0  0  0  0  0  0  0  0  0
    2.6889   -3.3848    0.8068 H   0  0  0  0  0  0  0  0  0  0  0  0
    3.3105   -1.6827    0.8585 H   0  0  0  0  0  0  0  0  0  0  0  0
  1  2  1  0
  1 14  1  0
  1  5  1  0
  1  3  1  0
  2  6  1  0
  2 13  1  0
  2  4  1  0
  3  9  1  0
  3 15  1  0
  3 10  1  0
  4  5  1  0
  4 18  1  0
  4 19  1  0
  5 20  1  0
  5 21  1  0
  6 16  1  0
  6 17  1  0
  6  7  1  0
  7 22  1  0
  7 23  1  0
  7 24  1  0
  8 11  1  0
  8 25  1  0
  8 26  1  0
  8 27  1  0
  9 11  2  3
  9 29  1  0
 10 30  1  0
 10 12  2  0
 11 28  1  0
 12 31  1  0
 12 32  1  0
M  END
