
     RDKit          3D

 19 20  0  0  0  0  0  0  0  0999 V2000
   -0.0932    0.9538    0.3113 C   0  0  0  0  0  0  0  0  0  0  0  0
   -1.8249   -0.8112    0.3393 C   0  0  0  0  0  0  0  0  0  0  0  0
    2.0277   -0.9598    0.1966 C   0  0  0  0  0  0  0  0  0  0  0  0
   -0.3722   -0.5080    0.4919 C   0  0  0  0  0  0  0  0  0  0  0  0
    0.6087   -1.4241    0.4330 C   0  0  0  0  0  0  0  0  0  0  0  0
   -1.4096    1.4484   -0.1848 C   0  0  0  0  0  0  0  0  0  0  0  0
    1.0396    1.1529   -0.6684 C   0  0  0  0  0  0  0  0  0  0  0  0
   -2.3517    0.5060   -0.1303 C   0  0  0  0  0  0  0  0  0  0  0  0
    2.0454    0.2571   -0.7093 C   0  0  0  0  0  0  0  0  0  0  0  0
    0.1583    1.4210    1.2874 H   0  0  0  0  0  0  0  0  0  0  0  0
   -2.2756   -1.1011    1.3115 H   0  0  0  0  0  0  0  0  0  0  0  0
   -1.9959   -1.5875   -0.4370 H   0  0  0  0  0  0  0  0  0  0  0  0
    2.4812   -0.6841    1.1721 H   0  0  0  0  0  0  0  0  0  0  0  0
    2.6252   -1.7791   -0.2554 H   0  0  0  0  0  0  0  0  0  0  0  0
   -3.3859    0.6807   -0.4080 H   0  0  0  0  0  0  0  0  0  0  0  0
    1.0738    2.0378   -1.2969 H   0  0  0  0  0  0  0  0  0  0  0  0
   -1.6037    2.4715   -0.4903 H   0  0  0  0  0  0  0  0  0  0  0  0
    2.8784    0.4101   -1.3883 H   0  0  0  0  0  0  0  0  0  0  0  0
    0.3743   -2.4844    0.4257 H   0  0  0  0  0  0  0  0  0  0  0  0
  1  4  1  0
  1  6  1  0
  1  7  1  0
  1 10  1  0
  2  4  1  0
  2  8  1  0
  2 11  1  0
  2 12  1  0
  3  5  1  0
  3  9  1  0
  3 13  1  0
  3 14  1  0
  4  5  2  0
  5 19  1  0
  6  8  2  0
  6 17  1  0
  7  9  2  0
  7 16  1  0
  8 15  1  0
  9 18  1  0
M  END
