
     RDKit          3D

 21 21  0  0  0  0  0  0  0  0999 V2000
   -2.2660   -0.4666   -0.5510 C   0  0  0  0  0  0  0  0  0  0  0  0
    2.8534    0.4111    0.4522 C   0  0  0  0  0  0  0  0  0  0  0  0
   -2.8131    0.8585   -0.0261 C   0  0  0  0  0  0  0  0  0  0  0  0
    0.1009   -0.5402    0.3368 C   0  0  0  0  0  0  0  0  0  0  0  0
   -1.1670   -0.9943    0.3327 C   0  0  0  0  0  0  0  0  0  0  0  0
    2.3399   -0.7146    1.3140 C   0  0  0  0  0  0  0  0  0  0  0  0
    1.8371    0.9655   -0.5144 C   0  0  0  0  0  0  0  0  0  0  0  0
    1.0771   -1.1445    1.2657 C   0  0  0  0  0  0  0  0  0  0  0  0
    0.5734    0.5366   -0.5642 C   0  0  0  0  0  0  0  0  0  0  0  0
   -3.0971   -1.2043   -0.5586 H   0  0  0  0  0  0  0  0  0  0  0  0
   -1.9167   -0.3613   -1.5998 H   0  0  0  0  0  0  0  0  0  0  0  0
    3.1990    1.2336    1.1128 H   0  0  0  0  0  0  0  0  0  0  0  0
    3.7267    0.0431   -0.1260 H   0  0  0  0  0  0  0  0  0  0  0  0
   -2.0228    1.6371   -0.0064 H   0  0  0  0  0  0  0  0  0  0  0  0
   -3.2156    0.7261    1.0010 H   0  0  0  0  0  0  0  0  0  0  0  0
   -3.6349    1.2073   -0.6863 H   0  0  0  0  0  0  0  0  0  0  0  0
   -1.4345   -1.8087    0.9970 H   0  0  0  0  0  0  0  0  0  0  0  0
    3.0258   -1.1806    2.0105 H   0  0  0  0  0  0  0  0  0  0  0  0
    2.1492    1.7545   -1.1874 H   0  0  0  0  0  0  0  0  0  0  0  0
    0.7747   -1.9511    1.9236 H   0  0  0  0  0  0  0  0  0  0  0  0
   -0.0893    0.9928   -1.2865 H   0  0  0  0  0  0  0  0  0  0  0  0
  1  3  1  0
  1  5  1  0
  1 10  1  0
  1 11  1  0
  2  6  1  0
  2  7  1  0
  2 12  1  0
  2 13  1  0
  3 14  1  0
  3 15  1  0
  3 16  1  0
  4  5  2  3
  4  8  1  0
  4  9  1  0
  5 17  1  0
  6  8  2  0
  6 18  1  0
  7  9  2  0
  7 19  1  0
  8 20  1  0
  9 21  1  0
M  END
