
     RDKit          3D

 21 21  0  0  0  0  0  0  0  0999 V2000
   -2.1676   -0.1550   -0.5928 C   0  0  0  0  0  0  0  0  0  0  0  0
    2.9831    0.1549    0.3315 C   0  0  0  0  0  0  0  0  0  0  0  0
   -3.2159    0.6679    0.1658 C   0  0  0  0  0  0  0  0  0  0  0  0
    0.1392   -0.3597    0.3094 C   0  0  0  0  0  0  0  0  0  0  0  0
   -1.1445   -0.6320    0.3565 C   0  0  0  0  0  0  0  0  0  0  0  0
    2.3309   -0.6788    1.3440 C   0  0  0  0  0  0  0  0  0  0  0  0
    2.0633    0.6928   -0.6770 C   0  0  0  0  0  0  0  0  0  0  0  0
    1.0524   -0.9117    1.3363 C   0  0  0  0  0  0  0  0  0  0  0  0
    0.7690    0.4714   -0.7053 C   0  0  0  0  0  0  0  0  0  0  0  0
   -2.6901   -1.0701   -0.9855 H   0  0  0  0  0  0  0  0  0  0  0  0
   -1.7444    0.4532   -1.3884 H   0  0  0  0  0  0  0  0  0  0  0  0
    3.4875    1.0163    0.8507 H   0  0  0  0  0  0  0  0  0  0  0  0
    3.7586   -0.5000   -0.1602 H   0  0  0  0  0  0  0  0  0  0  0  0
   -2.8738    1.7233    0.1590 H   0  0  0  0  0  0  0  0  0  0  0  0
   -3.3281    0.2736    1.1800 H   0  0  0  0  0  0  0  0  0  0  0  0
   -4.1839    0.5433   -0.3552 H   0  0  0  0  0  0  0  0  0  0  0  0
   -1.5009   -1.2702    1.1698 H   0  0  0  0  0  0  0  0  0  0  0  0
    2.9461   -1.1108    2.1212 H   0  0  0  0  0  0  0  0  0  0  0  0
    2.5028    1.3245   -1.4586 H   0  0  0  0  0  0  0  0  0  0  0  0
    0.6193   -1.5470    2.1247 H   0  0  0  0  0  0  0  0  0  0  0  0
    0.1971    0.9142   -1.4862 H   0  0  0  0  0  0  0  0  0  0  0  0
  1  3  1  0
  1  5  1  0
  1 10  1  0
  1 11  1  0
  2  6  1  0
  2  7  1  0
  2 12  1  0
  2 13  1  0
  3 14  1  0
  3 15  1  0
  3 16  1  0
  4  5  2  3
  4  8  1  0
  4  9  1  0
  5 17  1  0
  6  8  2  0
  6 18  1  0
  7  9  2  0
  7 19  1  0
  8 20  1  0
  9 21  1  0
M  END
