
     RDKit          3D

 20 21  0  0  0  0  0  0  0  0999 V2000
   -1.0543   -1.3910   -0.1649 C   0  0  0  0  0  0  0  0  0  0  0  0
   -2.2743   -0.5659    0.2753 C   0  0  0  0  0  0  0  0  0  0  0  0
    0.2247   -0.6084    0.0104 C   0  0  0  0  0  0  0  0  0  0  0  0
    0.2119    0.7918   -0.1583 C   0  0  0  0  0  0  0  0  0  0  0  0
   -2.2289    0.8353   -0.2766 C   0  0  0  0  0  0  0  0  0  0  0  0
   -1.0678    1.4836   -0.4140 C   0  0  0  0  0  0  0  0  0  0  0  0
    1.4421   -1.2694    0.2330 C   0  0  0  0  0  0  0  0  0  0  0  0
    1.4114    1.5143   -0.0878 C   0  0  0  0  0  0  0  0  0  0  0  0
    2.6323   -0.5401    0.3129 C   0  0  0  0  0  0  0  0  0  0  0  0
    2.6170    0.8484    0.1525 C   0  0  0  0  0  0  0  0  0  0  0  0
   -3.2066   -1.0684   -0.0596 H   0  0  0  0  0  0  0  0  0  0  0  0
   -2.2928   -0.5065    1.3851 H   0  0  0  0  0  0  0  0  0  0  0  0
   -1.0204   -2.3301    0.4292 H   0  0  0  0  0  0  0  0  0  0  0  0
   -1.1605   -1.6618   -1.2376 H   0  0  0  0  0  0  0  0  0  0  0  0
   -3.1571    1.3504   -0.4898 H   0  0  0  0  0  0  0  0  0  0  0  0
    1.4700   -2.3468    0.3381 H   0  0  0  0  0  0  0  0  0  0  0  0
   -1.0701    2.5188   -0.7327 H   0  0  0  0  0  0  0  0  0  0  0  0
    3.5689   -1.0528    0.4900 H   0  0  0  0  0  0  0  0  0  0  0  0
    1.4133    2.5898   -0.2150 H   0  0  0  0  0  0  0  0  0  0  0  0
    3.5413    1.4087    0.2098 H   0  0  0  0  0  0  0  0  0  0  0  0
  1  2  1  0
  1  3  1  0
  1 13  1  0
  1 14  1  0
  2  5  1  0
  2 11  1  0
  2 12  1  0
  3  4  2  0
  3  7  1  0
  4  6  1  0
  4  8  1  0
  5  6  2  0
  5 15  1  0
  6 17  1  0
  7  9  2  0
  7 16  1  0
  8 10  2  0
  8 19  1  0
  9 10  1  0
  9 18  1  0
 10 20  1  0
M  END
