
     RDKit          3D

 32 33  0  0  0  0  0  0  0  0999 V2000
    0.7579    0.0861   -0.5852 C   0  0  0  0  0  0  0  0  0  0  0  0
   -0.3077   -0.9496   -0.1749 C   0  0  0  0  0  0  0  0  0  0  0  0
    1.6296   -0.3472    0.6056 C   0  0  0  0  0  0  0  0  0  0  0  0
   -1.6907   -0.3766    0.2437 C   0  0  0  0  0  0  0  0  0  0  0  0
    0.5704   -1.3776    1.0067 C   0  0  0  0  0  0  0  0  0  0  0  0
    2.9712   -0.9831    0.2029 C   0  0  0  0  0  0  0  0  0  0  0  0
   -2.6078   -0.2181   -0.9879 C   0  0  0  0  0  0  0  0  0  0  0  0
    0.3106    1.5622   -0.5217 C   0  0  0  0  0  0  0  0  0  0  0  0
   -4.0391    0.1598   -0.6042 C   0  0  0  0  0  0  0  0  0  0  0  0
    3.9687    0.0758   -0.2589 C   0  0  0  0  0  0  0  0  0  0  0  0
   -1.5439    0.9339    0.9871 C   0  0  0  0  0  0  0  0  0  0  0  0
   -0.6134    1.8296    0.6349 C   0  0  0  0  0  0  0  0  0  0  0  0
    1.7503    0.4366    1.3876 H   0  0  0  0  0  0  0  0  0  0  0  0
   -0.3924   -1.7743   -0.9181 H   0  0  0  0  0  0  0  0  0  0  0  0
    1.2077   -0.1606   -1.5731 H   0  0  0  0  0  0  0  0  0  0  0  0
   -2.1695   -1.1127    0.9271 H   0  0  0  0  0  0  0  0  0  0  0  0
   -2.6480   -1.1818   -1.5411 H   0  0  0  0  0  0  0  0  0  0  0  0
   -2.2038    0.5494   -1.6811 H   0  0  0  0  0  0  0  0  0  0  0  0
    3.3973   -1.5114    1.0830 H   0  0  0  0  0  0  0  0  0  0  0  0
    2.8253   -1.7301   -0.6085 H   0  0  0  0  0  0  0  0  0  0  0  0
    0.9098   -2.4333    0.9147 H   0  0  0  0  0  0  0  0  0  0  0  0
    0.1278   -1.1538    2.0024 H   0  0  0  0  0  0  0  0  0  0  0  0
    1.2019    2.2212   -0.4483 H   0  0  0  0  0  0  0  0  0  0  0  0
   -0.2164    1.8191   -1.4642 H   0  0  0  0  0  0  0  0  0  0  0  0
   -4.6698    0.1967   -1.5173 H   0  0  0  0  0  0  0  0  0  0  0  0
   -4.0641    1.1597   -0.1220 H   0  0  0  0  0  0  0  0  0  0  0  0
   -4.4657   -0.5947    0.0904 H   0  0  0  0  0  0  0  0  0  0  0  0
    4.1494    0.8140    0.5512 H   0  0  0  0  0  0  0  0  0  0  0  0
    4.9327   -0.4101   -0.5183 H   0  0  0  0  0  0  0  0  0  0  0  0
    3.5864    0.6054   -1.1570 H   0  0  0  0  0  0  0  0  0  0  0  0
   -0.4943    2.7382    1.2168 H   0  0  0  0  0  0  0  0  0  0  0  0
   -2.1705    1.1275    1.8524 H   0  0  0  0  0  0  0  0  0  0  0  0
  1  3  1  0
  1 15  1  0
  1  2  1  0
  1  8  1  0
  2  5  1  0
  2 14  1  0
  2  4  1  0
  3  6  1  0
  3 13  1  0
  3  5  1  0
  4  7  1  0
  4 16  1  0
  4 11  1  0
  5 21  1  0
  5 22  1  0
  6 19  1  0
  6 20  1  0
  6 10  1  0
  7 17  1  0
  7 18  1  0
  7  9  1  0
  8 12  1  0
  8 23  1  0
  8 24  1  0
  9 25  1  0
  9 26  1  0
  9 27  1  0
 10 28  1  0
 10 29  1  0
 10 30  1  0
 11 32  1  0
 11 12  2  0
 12 31  1  0
M  END
