
     RDKit          3D

 20 21  0  0  0  0  0  0  0  0999 V2000
   -0.1358   -0.5268    0.7741 C   0  0  0  0  0  0  0  0  0  0  0  0
    1.1349   -1.1584    0.1821 C   0  0  0  0  0  0  0  0  0  0  0  0
   -0.1426    0.8638    0.2173 C   0  0  0  0  0  0  0  0  0  0  0  0
    1.8575    0.0264   -0.3741 C   0  0  0  0  0  0  0  0  0  0  0  0
   -1.4220   -1.2403    0.4304 C   0  0  0  0  0  0  0  0  0  0  0  0
    0.9962    1.1955   -0.3604 C   0  0  0  0  0  0  0  0  0  0  0  0
   -1.3957    1.6179    0.1001 C   0  0  0  0  0  0  0  0  0  0  0  0
   -2.5532   -0.5478    0.2103 C   0  0  0  0  0  0  0  0  0  0  0  0
   -2.5470    0.9351    0.1166 C   0  0  0  0  0  0  0  0  0  0  0  0
    3.0819   -0.0051   -0.8928 C   0  0  0  0  0  0  0  0  0  0  0  0
   -0.0444   -0.4655    1.8808 H   0  0  0  0  0  0  0  0  0  0  0  0
    0.8983   -1.8706   -0.6387 H   0  0  0  0  0  0  0  0  0  0  0  0
    1.7378   -1.6602    0.9697 H   0  0  0  0  0  0  0  0  0  0  0  0
   -1.4640   -2.3204    0.4967 H   0  0  0  0  0  0  0  0  0  0  0  0
    1.1811    2.1245   -0.8854 H   0  0  0  0  0  0  0  0  0  0  0  0
   -1.3901    2.6872   -0.0705 H   0  0  0  0  0  0  0  0  0  0  0  0
   -3.4850   -1.0795    0.0672 H   0  0  0  0  0  0  0  0  0  0  0  0
   -3.4840    1.4617   -0.0107 H   0  0  0  0  0  0  0  0  0  0  0  0
    3.5261    0.8889   -1.3120 H   0  0  0  0  0  0  0  0  0  0  0  0
    3.6500   -0.9264   -0.9008 H   0  0  0  0  0  0  0  0  0  0  0  0
  1  2  1  0
  1  3  1  0
  1  5  1  0
  1 11  1  0
  2  4  1  0
  2 12  1  0
  2 13  1  0
  3  6  2  0
  3  7  1  0
  4  6  1  0
  4 10  2  0
  5  8  2  0
  5 14  1  0
  6 15  1  0
  7  9  2  0
  7 16  1  0
  8  9  1  0
  8 17  1  0
  9 18  1  0
 10 19  1  0
 10 20  1  0
M  END
