
     RDKit          3D

 16 16  0  0  0  0  0  0  0  0999 V2000
    0.2356    0.5052    0.3020 C   0  0  0  0  0  0  0  0  0  0  0  0
   -0.8973    0.4829   -0.6943 C   0  0  0  0  0  0  0  0  0  0  0  0
    0.9071   -0.7812    0.5668 C   0  0  0  0  0  0  0  0  0  0  0  0
   -1.9274   -0.4895   -0.1028 C   0  0  0  0  0  0  0  0  0  0  0  0
    1.5094    0.9965   -0.1285 C   0  0  0  0  0  0  0  0  0  0  0  0
    2.1194   -0.1235    0.0965 C   0  0  0  0  0  0  0  0  0  0  0  0
   -0.1245    1.0243    1.2187 H   0  0  0  0  0  0  0  0  0  0  0  0
   -1.3403    1.4804   -0.7539 H   0  0  0  0  0  0  0  0  0  0  0  0
   -0.6179    0.1560   -1.7003 H   0  0  0  0  0  0  0  0  0  0  0  0
    0.6043   -1.6058   -0.1180 H   0  0  0  0  0  0  0  0  0  0  0  0
    0.8610   -1.0381    1.6454 H   0  0  0  0  0  0  0  0  0  0  0  0
   -2.8909   -0.3984   -0.6238 H   0  0  0  0  0  0  0  0  0  0  0  0
   -1.4779   -1.5011   -0.1604 H   0  0  0  0  0  0  0  0  0  0  0  0
   -1.9907   -0.1955    0.9817 H   0  0  0  0  0  0  0  0  0  0  0  0
    3.1567   -0.4784   -0.0138 H   0  0  0  0  0  0  0  0  0  0  0  0
    1.8736    1.9661   -0.5154 H   0  0  0  0  0  0  0  0  0  0  0  0
  1  2  1  0
  1  7  1  0
  1  5  1  0
  1  3  1  0
  2  8  1  0
  2  9  1  0
  2  4  1  0
  3  6  1  0
  3 10  1  0
  3 11  1  0
  4 12  1  0
  4 13  1  0
  4 14  1  0
  5 16  1  0
  5  6  2  0
  6 15  1  0
M  END
