
     RDKit          3D

 16 16  0  0  0  0  0  0  0  0999 V2000
    0.2660    0.4172    0.4087 C   0  0  0  0  0  0  0  0  0  0  0  0
   -0.8700    0.3676   -0.6289 C   0  0  0  0  0  0  0  0  0  0  0  0
    1.0253   -0.7979    0.5484 C   0  0  0  0  0  0  0  0  0  0  0  0
   -2.0794   -0.3940   -0.0925 C   0  0  0  0  0  0  0  0  0  0  0  0
    1.4882    1.0899   -0.1310 C   0  0  0  0  0  0  0  0  0  0  0  0
    2.2261   -0.0834    0.0195 C   0  0  0  0  0  0  0  0  0  0  0  0
   -0.0452    0.8621    1.3810 H   0  0  0  0  0  0  0  0  0  0  0  0
   -1.1850    1.4070   -0.8656 H   0  0  0  0  0  0  0  0  0  0  0  0
   -0.5255   -0.1069   -1.5750 H   0  0  0  0  0  0  0  0  0  0  0  0
    0.7211   -1.6318   -0.1228 H   0  0  0  0  0  0  0  0  0  0  0  0
    1.1663   -1.1063    1.6076 H   0  0  0  0  0  0  0  0  0  0  0  0
   -2.8893   -0.3872   -0.8520 H   0  0  0  0  0  0  0  0  0  0  0  0
   -1.8090   -1.4484    0.1270 H   0  0  0  0  0  0  0  0  0  0  0  0
   -2.4576    0.0875    0.8344 H   0  0  0  0  0  0  0  0  0  0  0  0
    3.2554   -0.3656   -0.1733 H   0  0  0  0  0  0  0  0  0  0  0  0
    1.7126    2.0902   -0.4856 H   0  0  0  0  0  0  0  0  0  0  0  0
  1  2  1  0
  1  7  1  0
  1  5  1  0
  1  3  1  0
  2  8  1  0
  2  9  1  0
  2  4  1  0
  3  6  1  0
  3 10  1  0
  3 11  1  0
  4 12  1  0
  4 13  1  0
  4 14  1  0
  5 16  1  0
  5  6  2  0
  6 15  1  0
M  END
