
     RDKit          3D

 17 17  0  0  0  0  0  0  0  0999 V2000
    0.9440   -0.0477   -0.5704 C   0  0  0  0  0  0  0  0  0  0  0  0
   -1.6042   -0.0003    0.6191 C   0  0  0  0  0  0  0  0  0  0  0  0
    1.7340    0.0801    0.6954 C   0  0  0  0  0  0  0  0  0  0  0  0
    0.0763   -1.2589   -0.6137 C   0  0  0  0  0  0  0  0  0  0  0  0
    0.0678    1.1248   -0.7911 C   0  0  0  0  0  0  0  0  0  0  0  0
   -1.1379    1.1361   -0.2222 C   0  0  0  0  0  0  0  0  0  0  0  0
   -1.1299   -1.2387   -0.0515 C   0  0  0  0  0  0  0  0  0  0  0  0
    1.6887   -0.0575   -1.4143 H   0  0  0  0  0  0  0  0  0  0  0  0
   -1.1628   -0.0025    1.6261 H   0  0  0  0  0  0  0  0  0  0  0  0
   -2.7049    0.0330    0.7239 H   0  0  0  0  0  0  0  0  0  0  0  0
    2.2465   -0.8465    0.9481 H   0  0  0  0  0  0  0  0  0  0  0  0
    1.1778    0.5359    1.5395 H   0  0  0  0  0  0  0  0  0  0  0  0
    2.5367    0.8436    0.4703 H   0  0  0  0  0  0  0  0  0  0  0  0
    0.3975    1.9701   -1.4086 H   0  0  0  0  0  0  0  0  0  0  0  0
    0.4339   -2.1582   -1.1066 H   0  0  0  0  0  0  0  0  0  0  0  0
   -1.7601    1.9856   -0.3881 H   0  0  0  0  0  0  0  0  0  0  0  0
   -1.8035   -2.0986   -0.0558 H   0  0  0  0  0  0  0  0  0  0  0  0
  1  3  1  0
  1  4  1  0
  1  5  1  0
  1  8  1  0
  2  6  1  0
  2  7  1  0
  2  9  1  0
  2 10  1  0
  3 11  1  0
  3 12  1  0
  3 13  1  0
  4  7  2  0
  4 15  1  0
  5  6  2  0
  5 14  1  0
  6 16  1  0
  7 17  1  0
M  END
