
     RDKit          3D

 17 17  0  0  0  0  0  0  0  0999 V2000
    0.9429    0.1306   -0.3975 C   0  0  0  0  0  0  0  0  0  0  0  0
   -0.1381   -0.9529   -0.1902 C   0  0  0  0  0  0  0  0  0  0  0  0
    2.1772   -0.1042    0.4761 C   0  0  0  0  0  0  0  0  0  0  0  0
   -1.3198   -0.1696    0.2656 C   0  0  0  0  0  0  0  0  0  0  0  0
    0.2642    1.4164   -0.0255 C   0  0  0  0  0  0  0  0  0  0  0  0
   -0.9912    1.2381    0.3371 C   0  0  0  0  0  0  0  0  0  0  0  0
   -2.5083   -0.6874    0.5639 C   0  0  0  0  0  0  0  0  0  0  0  0
    1.2456    0.1722   -1.4668 H   0  0  0  0  0  0  0  0  0  0  0  0
   -0.3664   -1.4685   -1.1483 H   0  0  0  0  0  0  0  0  0  0  0  0
    0.1458   -1.7003    0.5832 H   0  0  0  0  0  0  0  0  0  0  0  0
    2.6503   -1.0725    0.2073 H   0  0  0  0  0  0  0  0  0  0  0  0
    1.8999   -0.1244    1.5524 H   0  0  0  0  0  0  0  0  0  0  0  0
    2.9189    0.7062    0.3109 H   0  0  0  0  0  0  0  0  0  0  0  0
    0.7397    2.3882   -0.0618 H   0  0  0  0  0  0  0  0  0  0  0  0
   -1.6625    2.0324    0.6376 H   0  0  0  0  0  0  0  0  0  0  0  0
   -3.3213   -0.0506    0.8892 H   0  0  0  0  0  0  0  0  0  0  0  0
   -2.6768   -1.7537    0.4849 H   0  0  0  0  0  0  0  0  0  0  0  0
  1  2  1  0
  1  3  1  0
  1  5  1  0
  1  8  1  0
  2  4  1  0
  2  9  1  0
  2 10  1  0
  3 11  1  0
  3 12  1  0
  3 13  1  0
  4  6  1  0
  4  7  2  0
  5  6  2  0
  5 14  1  0
  6 15  1  0
  7 16  1  0
  7 17  1  0
M  END
