
     RDKit          3D

 13 13  0  0  0  0  0  0  0  0999 V2000
   -0.8430   -0.6737   -0.2598 C   0  0  0  0  0  0  0  0  0  0  0  0
    0.5449   -1.0184    0.2995 C   0  0  0  0  0  0  0  0  0  0  0  0
   -0.8915    0.7858    0.1367 C   0  0  0  0  0  0  0  0  0  0  0  0
    1.3435    0.1882   -0.1150 C   0  0  0  0  0  0  0  0  0  0  0  0
    0.4946    1.2061   -0.2003 C   0  0  0  0  0  0  0  0  0  0  0  0
   -0.8720   -0.8019   -1.3476 H   0  0  0  0  0  0  0  0  0  0  0  0
   -1.6114   -1.2786    0.2492 H   0  0  0  0  0  0  0  0  0  0  0  0
    0.4434   -1.0623    1.3914 H   0  0  0  0  0  0  0  0  0  0  0  0
    0.9536   -1.9131   -0.1846 H   0  0  0  0  0  0  0  0  0  0  0  0
   -1.0907    0.7909    1.2397 H   0  0  0  0  0  0  0  0  0  0  0  0
   -1.6579    1.3484   -0.4230 H   0  0  0  0  0  0  0  0  0  0  0  0
    2.4276    0.2122   -0.3087 H   0  0  0  0  0  0  0  0  0  0  0  0
    0.7590    2.2165   -0.4775 H   0  0  0  0  0  0  0  0  0  0  0  0
  1  2  1  0
  1  3  1  0
  1  6  1  0
  1  7  1  0
  2  4  1  0
  2  8  1  0
  2  9  1  0
  3  5  1  0
  3 10  1  0
  3 11  1  0
  4  5  2  0
  4 12  1  0
  5 13  1  0
M  END
