
     RDKit          3D

 20 21  0  0  0  0  0  0  0  0999 V2000
   -1.3506   -0.2854   -0.6669 C   0  0  0  0  0  0  0  0  0  0  0  0
   -2.2598   -0.9865    0.3422 C   0  0  0  0  0  0  0  0  0  0  0  0
    0.0801   -0.3026   -0.2341 C   0  0  0  0  0  0  0  0  0  0  0  0
    0.5318    0.9821   -0.0521 C   0  0  0  0  0  0  0  0  0  0  0  0
   -1.6159    1.2002   -0.6992 C   0  0  0  0  0  0  0  0  0  0  0  0
    0.9267   -1.3973   -0.0436 C   0  0  0  0  0  0  0  0  0  0  0  0
   -0.5434    1.9056   -0.3471 C   0  0  0  0  0  0  0  0  0  0  0  0
    1.8425    1.2505    0.3404 C   0  0  0  0  0  0  0  0  0  0  0  0
    2.2526   -1.1559    0.3549 C   0  0  0  0  0  0  0  0  0  0  0  0
    2.7087    0.1640    0.5476 C   0  0  0  0  0  0  0  0  0  0  0  0
   -1.4621   -0.7246   -1.6815 H   0  0  0  0  0  0  0  0  0  0  0  0
   -2.0156   -2.0691    0.3836 H   0  0  0  0  0  0  0  0  0  0  0  0
   -3.3207   -0.8788    0.0315 H   0  0  0  0  0  0  0  0  0  0  0  0
   -2.1357   -0.5500    1.3573 H   0  0  0  0  0  0  0  0  0  0  0  0
   -2.5607    1.6479   -0.9788 H   0  0  0  0  0  0  0  0  0  0  0  0
    0.5714   -2.4076   -0.1987 H   0  0  0  0  0  0  0  0  0  0  0  0
    3.7318    0.3415    0.8526 H   0  0  0  0  0  0  0  0  0  0  0  0
    2.1853    2.2677    0.4789 H   0  0  0  0  0  0  0  0  0  0  0  0
   -0.4934    2.9854   -0.2993 H   0  0  0  0  0  0  0  0  0  0  0  0
    2.9272   -1.9873    0.5122 H   0  0  0  0  0  0  0  0  0  0  0  0
  1  3  1  0
  1  5  1  0
  1  2  1  0
  1 11  1  0
  2 12  1  0
  2 13  1  0
  2 14  1  0
  3  4  2  0
  3  6  1  0
  4  7  1  0
  4  8  1  0
  5  7  2  0
  5 15  1  0
  6  9  2  0
  6 16  1  0
  7 19  1  0
  8 10  2  0
  8 18  1  0
  9 10  1  0
  9 20  1  0
 10 17  1  0
M  END
