
     RDKit          3D

 15 15  0  0  0  0  0  0  0  0999 V2000
   -1.7770    0.1374    0.3894 C   0  0  0  0  0  0  0  0  0  0  0  0
    1.0584   -0.0592   -0.2429 C   0  0  0  0  0  0  0  0  0  0  0  0
   -0.8939    1.2898    0.1419 C   0  0  0  0  0  0  0  0  0  0  0  0
   -1.0258   -1.1215    0.2721 C   0  0  0  0  0  0  0  0  0  0  0  0
    0.3874    1.2304   -0.1450 C   0  0  0  0  0  0  0  0  0  0  0  0
    0.2461   -1.2456   -0.0100 C   0  0  0  0  0  0  0  0  0  0  0  0
    2.3263   -0.2187   -0.5227 C   0  0  0  0  0  0  0  0  0  0  0  0
   -2.6766    0.1504   -0.2660 H   0  0  0  0  0  0  0  0  0  0  0  0
   -2.1713    0.2409    1.4265 H   0  0  0  0  0  0  0  0  0  0  0  0
   -1.3295    2.2931    0.1986 H   0  0  0  0  0  0  0  0  0  0  0  0
   -1.5833   -2.0461    0.4366 H   0  0  0  0  0  0  0  0  0  0  0  0
    0.9564    2.1318   -0.3111 H   0  0  0  0  0  0  0  0  0  0  0  0
    0.7129   -2.2193   -0.0749 H   0  0  0  0  0  0  0  0  0  0  0  0
    2.8050   -1.1994   -0.5900 H   0  0  0  0  0  0  0  0  0  0  0  0
    2.9648    0.6361   -0.7025 H   0  0  0  0  0  0  0  0  0  0  0  0
  1  3  1  0
  1  4  1  0
  1  8  1  0
  1  9  1  0
  2  5  1  0
  2  6  1  0
  2  7  2  0
  3  5  2  0
  3 10  1  0
  4  6  2  0
  4 11  1  0
  5 12  1  0
  6 13  1  0
  7 14  1  0
  7 15  1  0
M  END
