
     RDKit          3D

 14 14  0  0  0  0  0  0  0  0999 V2000
   -0.8224   -0.8317    0.4195 C   0  0  0  0  0  0  0  0  0  0  0  0
    0.6123    0.9884   -0.4387 C   0  0  0  0  0  0  0  0  0  0  0  0
    0.5648   -0.4209    0.0515 C   0  0  0  0  0  0  0  0  0  0  0  0
   -1.5927    0.4089    0.1211 C   0  0  0  0  0  0  0  0  0  0  0  0
   -0.8200    1.3891   -0.3411 C   0  0  0  0  0  0  0  0  0  0  0  0
    1.6332   -1.2172    0.1489 C   0  0  0  0  0  0  0  0  0  0  0  0
   -0.8905   -1.0844    1.4989 H   0  0  0  0  0  0  0  0  0  0  0  0
   -1.1718   -1.6719   -0.2174 H   0  0  0  0  0  0  0  0  0  0  0  0
    1.2413    1.6201    0.2237 H   0  0  0  0  0  0  0  0  0  0  0  0
    0.9600    1.0326   -1.4926 H   0  0  0  0  0  0  0  0  0  0  0  0
   -2.6638    0.5085    0.2626 H   0  0  0  0  0  0  0  0  0  0  0  0
   -1.1972    2.3690   -0.6146 H   0  0  0  0  0  0  0  0  0  0  0  0
    2.6166   -0.8563   -0.1358 H   0  0  0  0  0  0  0  0  0  0  0  0
    1.5304   -2.2343    0.5139 H   0  0  0  0  0  0  0  0  0  0  0  0
  1  3  1  0
  1  4  1  0
  1  7  1  0
  1  8  1  0
  2  3  1  0
  2  5  1  0
  2  9  1  0
  2 10  1  0
  3  6  2  0
  4  5  2  0
  4 11  1  0
  5 12  1  0
  6 13  1  0
  6 14  1  0
M  END
