
     RDKit          3D

 22 23  0  0  0  0  0  0  0  0999 V2000
    0.1052    0.3306   -0.5576 C   0  0  0  0  0  0  0  0  0  0  0  0
    0.9661   -1.7837    0.4027 C   0  0  0  0  0  0  0  0  0  0  0  0
   -2.6033   -0.5702   -0.4117 C   0  0  0  0  0  0  0  0  0  0  0  0
    2.2477    1.7692    0.0438 C   0  0  0  0  0  0  0  0  0  0  0  0
   -0.2092   -1.0929   -0.2040 C   0  0  0  0  0  0  0  0  0  0  0  0
    1.4538    0.4973    0.0673 C   0  0  0  0  0  0  0  0  0  0  0  0
    1.9298   -0.6522    0.5540 C   0  0  0  0  0  0  0  0  0  0  0  0
   -1.4757   -1.5347   -0.1247 C   0  0  0  0  0  0  0  0  0  0  0  0
   -0.9589    1.2482    0.0039 C   0  0  0  0  0  0  0  0  0  0  0  0
   -2.2375    0.8260    0.0549 C   0  0  0  0  0  0  0  0  0  0  0  0
    0.1666    0.4457   -1.6611 H   0  0  0  0  0  0  0  0  0  0  0  0
    1.3656   -2.5624   -0.2802 H   0  0  0  0  0  0  0  0  0  0  0  0
    0.7160   -2.2057    1.3996 H   0  0  0  0  0  0  0  0  0  0  0  0
   -3.5319   -0.9094    0.0935 H   0  0  0  0  0  0  0  0  0  0  0  0
   -2.7821   -0.5442   -1.5074 H   0  0  0  0  0  0  0  0  0  0  0  0
    2.4433    2.1062    1.0832 H   0  0  0  0  0  0  0  0  0  0  0  0
    1.6908    2.5645   -0.4942 H   0  0  0  0  0  0  0  0  0  0  0  0
    3.2144    1.5999   -0.4755 H   0  0  0  0  0  0  0  0  0  0  0  0
    2.9126   -0.7541    1.0038 H   0  0  0  0  0  0  0  0  0  0  0  0
   -0.7099    2.2579    0.3158 H   0  0  0  0  0  0  0  0  0  0  0  0
   -3.0116    1.4888    0.4288 H   0  0  0  0  0  0  0  0  0  0  0  0
   -1.6918   -2.5249    0.2651 H   0  0  0  0  0  0  0  0  0  0  0  0
  1  5  1  0
  1  6  1  0
  1  9  1  0
  1 11  1  0
  2  5  1  0
  2  7  1  0
  2 12  1  0
  2 13  1  0
  3  8  1  0
  3 10  1  0
  3 14  1  0
  3 15  1  0
  4  6  1  0
  4 16  1  0
  4 17  1  0
  4 18  1  0
  5  8  2  0
  6  7  2  0
  7 19  1  0
  8 22  1  0
  9 10  2  0
  9 20  1  0
 10 21  1  0
M  END
