
     RDKit          3D

 14 14  0  0  0  0  0  0  0  0999 V2000
   -0.9812    0.8007    0.3527 C   0  0  0  0  0  0  0  0  0  0  0  0
   -1.1365   -0.5529   -0.3617 C   0  0  0  0  0  0  0  0  0  0  0  0
    0.3954    1.3761    0.1405 C   0  0  0  0  0  0  0  0  0  0  0  0
    0.0681   -1.4304   -0.1385 C   0  0  0  0  0  0  0  0  0  0  0  0
    1.4579    0.5718    0.0256 C   0  0  0  0  0  0  0  0  0  0  0  0
    1.2867   -0.8930   -0.0139 C   0  0  0  0  0  0  0  0  0  0  0  0
   -1.7466    1.5133   -0.0218 H   0  0  0  0  0  0  0  0  0  0  0  0
   -1.1407    0.6596    1.4435 H   0  0  0  0  0  0  0  0  0  0  0  0
   -2.0489   -1.0691    0.0056 H   0  0  0  0  0  0  0  0  0  0  0  0
   -1.2500   -0.3798   -1.4537 H   0  0  0  0  0  0  0  0  0  0  0  0
    0.5339    2.4497    0.1625 H   0  0  0  0  0  0  0  0  0  0  0  0
   -0.0448   -2.5069   -0.1604 H   0  0  0  0  0  0  0  0  0  0  0  0
    2.4516    0.9954   -0.0432 H   0  0  0  0  0  0  0  0  0  0  0  0
    2.1550   -1.5346    0.0629 H   0  0  0  0  0  0  0  0  0  0  0  0
  1  2  1  0
  1  3  1  0
  1  7  1  0
  1  8  1  0
  2  4  1  0
  2  9  1  0
  2 10  1  0
  3  5  2  0
  3 11  1  0
  4  6  2  0
  4 12  1  0
  5  6  1  0
  5 13  1  0
  6 14  1  0
M  END
