
     RDKit          3D

 14 14  0  0  0  0  0  0  0  0999 V2000
   -0.9812    0.8417    0.1402 C   0  0  0  0  0  0  0  0  0  0  0  0
   -1.1510   -0.5927   -0.1911 C   0  0  0  0  0  0  0  0  0  0  0  0
    0.4057    1.2567    0.2956 C   0  0  0  0  0  0  0  0  0  0  0  0
    0.1138   -1.3095   -0.2947 C   0  0  0  0  0  0  0  0  0  0  0  0
    1.4965    0.5428    0.1842 C   0  0  0  0  0  0  0  0  0  0  0  0
    1.3333   -0.8672   -0.1401 C   0  0  0  0  0  0  0  0  0  0  0  0
   -1.5406    1.5128   -0.5771 H   0  0  0  0  0  0  0  0  0  0  0  0
   -1.4556    0.9732    1.1727 H   0  0  0  0  0  0  0  0  0  0  0  0
   -1.8370   -1.1242    0.5322 H   0  0  0  0  0  0  0  0  0  0  0  0
   -1.6738   -0.6235   -1.2020 H   0  0  0  0  0  0  0  0  0  0  0  0
    0.5729    2.3264    0.5434 H   0  0  0  0  0  0  0  0  0  0  0  0
    0.0399   -2.3922   -0.5412 H   0  0  0  0  0  0  0  0  0  0  0  0
    2.4664    0.9551    0.3205 H   0  0  0  0  0  0  0  0  0  0  0  0
    2.2108   -1.4994   -0.2425 H   0  0  0  0  0  0  0  0  0  0  0  0
  1  2  1  0
  1  3  1  0
  1  7  1  0
  1  8  1  0
  2  4  1  0
  2  9  1  0
  2 10  1  0
  3  5  2  0
  3 11  1  0
  4  6  2  0
  4 12  1  0
  5  6  1  0
  5 13  1  0
  6 14  1  0
M  END
