
     RDKit          3D

 32 32  0  0  0  0  0  0  0  0999 V2000
   -1.0494   -0.0729    1.1619 C   0  0  0  0  0  0  0  0  0  0  0  0
   -1.5795    1.2699    0.6338 C   0  0  0  0  0  0  0  0  0  0  0  0
   -1.3258    0.3885    2.5910 C   0  0  0  0  0  0  0  0  0  0  0  0
   -1.8341    1.7259    2.0696 C   0  0  0  0  0  0  0  0  0  0  0  0
   -1.8917   -1.2908    0.7454 C   0  0  0  0  0  0  0  0  0  0  0  0
   -0.5178    2.1117   -0.0946 C   0  0  0  0  0  0  0  0  0  0  0  0
    2.7756   -0.2792   -0.8730 C   0  0  0  0  0  0  0  0  0  0  0  0
   -1.6382   -1.6716   -0.7100 C   0  0  0  0  0  0  0  0  0  0  0  0
    4.0128   -0.9989   -1.3996 C   0  0  0  0  0  0  0  0  0  0  0  0
    1.9515    0.2779   -1.9934 C   0  0  0  0  0  0  0  0  0  0  0  0
   -0.2617    1.5538   -1.4631 C   0  0  0  0  0  0  0  0  0  0  0  0
    0.8473    0.9212   -1.7338 C   0  0  0  0  0  0  0  0  0  0  0  0
    0.0404   -0.2307    0.9924 H   0  0  0  0  0  0  0  0  0  0  0  0
   -2.5310    1.1894    0.0587 H   0  0  0  0  0  0  0  0  0  0  0  0
   -2.9770   -1.0886    0.8881 H   0  0  0  0  0  0  0  0  0  0  0  0
   -1.6147   -2.1553    1.3889 H   0  0  0  0  0  0  0  0  0  0  0  0
   -2.1198   -0.1869    3.1107 H   0  0  0  0  0  0  0  0  0  0  0  0
   -0.3957    0.4962    3.1857 H   0  0  0  0  0  0  0  0  0  0  0  0
   -2.9156    1.8761    2.2809 H   0  0  0  0  0  0  0  0  0  0  0  0
   -1.1951    2.5789    2.3966 H   0  0  0  0  0  0  0  0  0  0  0  0
    2.1614   -1.0016   -0.2879 H   0  0  0  0  0  0  0  0  0  0  0  0
    3.0936    0.5473   -0.1999 H   0  0  0  0  0  0  0  0  0  0  0  0
    0.4231    2.1548    0.5016 H   0  0  0  0  0  0  0  0  0  0  0  0
   -0.8914    3.1522   -0.2086 H   0  0  0  0  0  0  0  0  0  0  0  0
   -2.1990   -2.5975   -0.9547 H   0  0  0  0  0  0  0  0  0  0  0  0
   -1.9843   -0.8630   -1.3884 H   0  0  0  0  0  0  0  0  0  0  0  0
   -0.5563   -1.8569   -0.8793 H   0  0  0  0  0  0  0  0  0  0  0  0
    4.6315   -0.3113   -2.0132 H   0  0  0  0  0  0  0  0  0  0  0  0
    4.6221   -1.3637   -0.5496 H   0  0  0  0  0  0  0  0  0  0  0  0
    3.7134   -1.8691   -2.0209 H   0  0  0  0  0  0  0  0  0  0  0  0
    2.2526    0.1452   -3.0271 H   0  0  0  0  0  0  0  0  0  0  0  0
   -1.0472    1.5829   -2.2081 H   0  0  0  0  0  0  0  0  0  0  0  0
  1  5  1  0
  1 13  1  0
  1  2  1  0
  1  3  1  0
  2 14  1  0
  2  4  1  0
  2  6  1  0
  3  4  1  0
  3 17  1  0
  3 18  1  0
  4 19  1  0
  4 20  1  0
  5 15  1  0
  5 16  1  0
  5  8  1  0
  6 11  1  0
  6 23  1  0
  6 24  1  0
  7 10  1  0
  7 21  1  0
  7 22  1  0
  7  9  1  0
  8 25  1  0
  8 26  1  0
  8 27  1  0
  9 28  1  0
  9 29  1  0
  9 30  1  0
 10 31  1  0
 10 12  2  0
 11 12  2  0
 11 32  1  0
M  END
