
     RDKit          3D

 20 20  0  0  0  0  0  0  0  0999 V2000
    0.7112   -0.0271    0.0128 C   0  0  0  0  0  0  0  0  0  0  0  0
   -0.7085   -0.0598   -0.0347 C   0  0  0  0  0  0  0  0  0  0  0  0
    1.3592    1.1862    0.3234 C   0  0  0  0  0  0  0  0  0  0  0  0
   -1.4316    1.1150    0.2575 C   0  0  0  0  0  0  0  0  0  0  0  0
    1.5149   -1.2289   -0.3336 C   0  0  0  0  0  0  0  0  0  0  0  0
   -0.7687    2.3018    0.5702 C   0  0  0  0  0  0  0  0  0  0  0  0
    0.6227    2.3378    0.6009 C   0  0  0  0  0  0  0  0  0  0  0  0
   -1.4345   -1.3272   -0.3116 C   0  0  0  0  0  0  0  0  0  0  0  0
    2.7015   -1.4950    0.2128 C   0  0  0  0  0  0  0  0  0  0  0  0
   -2.6113   -1.3721   -0.9365 C   0  0  0  0  0  0  0  0  0  0  0  0
   -2.5137    1.1135    0.2726 H   0  0  0  0  0  0  0  0  0  0  0  0
    2.4391    1.2560    0.3255 H   0  0  0  0  0  0  0  0  0  0  0  0
    1.1150   -1.9431   -1.0423 H   0  0  0  0  0  0  0  0  0  0  0  0
   -1.3368    3.1955    0.7943 H   0  0  0  0  0  0  0  0  0  0  0  0
    1.1336    3.2627    0.8360 H   0  0  0  0  0  0  0  0  0  0  0  0
   -0.9825   -2.2671   -0.0204 H   0  0  0  0  0  0  0  0  0  0  0  0
    3.1415   -0.8524    0.9636 H   0  0  0  0  0  0  0  0  0  0  0  0
    3.2363   -2.3915   -0.0731 H   0  0  0  0  0  0  0  0  0  0  0  0
   -3.0996   -0.4776   -1.2993 H   0  0  0  0  0  0  0  0  0  0  0  0
   -3.0878   -2.3268   -1.1179 H   0  0  0  0  0  0  0  0  0  0  0  0
  1  2  2  0
  1  3  1  0
  1  5  1  0
  2  4  1  0
  2  8  1  0
  3  7  2  0
  3 12  1  0
  4  6  2  0
  4 11  1  0
  5  9  2  0
  5 13  1  0
  6  7  1  0
  6 14  1  0
  7 15  1  0
  8 10  2  0
  8 16  1  0
  9 17  1  0
  9 18  1  0
 10 19  1  0
 10 20  1  0
M  END
