
     RDKit          3D

 34 34  0  0  0  0  0  0  0  0999 V2000
   -0.8840   -0.7891   -0.2307 C   0  0  0  0  0  0  0  0  0  0  0  0
   -1.6548    0.1301    0.6617 C   0  0  0  0  0  0  0  0  0  0  0  0
    0.5898   -0.9131    0.0614 C   0  0  0  0  0  0  0  0  0  0  0  0
   -2.5981   -0.9746    1.0516 C   0  0  0  0  0  0  0  0  0  0  0  0
   -1.7553   -1.9172    0.2195 C   0  0  0  0  0  0  0  0  0  0  0  0
   -2.4101    1.2546   -0.0171 C   0  0  0  0  0  0  0  0  0  0  0  0
    1.2715   -1.8652   -0.8980 C   0  0  0  0  0  0  0  0  0  0  0  0
   -1.4902    2.1735   -0.7941 C   0  0  0  0  0  0  0  0  0  0  0  0
    2.7327   -2.0112   -0.6367 C   0  0  0  0  0  0  0  0  0  0  0  0
    2.3846    2.4232    0.7754 C   0  0  0  0  0  0  0  0  0  0  0  0
    1.2111    0.4541   -0.0447 C   0  0  0  0  0  0  0  0  0  0  0  0
    1.7898    1.0615    0.9647 C   0  0  0  0  0  0  0  0  0  0  0  0
   -1.0740    0.5776    1.5050 H   0  0  0  0  0  0  0  0  0  0  0  0
   -1.0029   -0.5342   -1.3234 H   0  0  0  0  0  0  0  0  0  0  0  0
    0.7968   -1.2726    1.0794 H   0  0  0  0  0  0  0  0  0  0  0  0
   -2.8797    1.8414    0.8062 H   0  0  0  0  0  0  0  0  0  0  0  0
   -3.2156    0.8640   -0.6781 H   0  0  0  0  0  0  0  0  0  0  0  0
    0.7905   -2.8521   -0.7874 H   0  0  0  0  0  0  0  0  0  0  0  0
    1.1471   -1.4687   -1.9299 H   0  0  0  0  0  0  0  0  0  0  0  0
   -2.6205   -1.2156    2.1381 H   0  0  0  0  0  0  0  0  0  0  0  0
   -3.6465   -0.8276    0.6987 H   0  0  0  0  0  0  0  0  0  0  0  0
   -1.2811   -2.7475    0.7740 H   0  0  0  0  0  0  0  0  0  0  0  0
   -2.3807   -2.2995   -0.6257 H   0  0  0  0  0  0  0  0  0  0  0  0
   -0.7695    2.5732   -0.0496 H   0  0  0  0  0  0  0  0  0  0  0  0
   -2.1461    2.9996   -1.1635 H   0  0  0  0  0  0  0  0  0  0  0  0
   -1.0343    1.6755   -1.6485 H   0  0  0  0  0  0  0  0  0  0  0  0
    3.0524   -1.7628    0.3936 H   0  0  0  0  0  0  0  0  0  0  0  0
    3.0354   -3.0443   -0.8735 H   0  0  0  0  0  0  0  0  0  0  0  0
    3.3555   -1.3414   -1.2944 H   0  0  0  0  0  0  0  0  0  0  0  0
    3.1346    2.6816    1.5455 H   0  0  0  0  0  0  0  0  0  0  0  0
    2.9400    2.4107   -0.2070 H   0  0  0  0  0  0  0  0  0  0  0  0
    1.6144    3.2087    0.7939 H   0  0  0  0  0  0  0  0  0  0  0  0
    1.1545    0.9193   -1.0162 H   0  0  0  0  0  0  0  0  0  0  0  0
    1.8425    0.5878    1.9369 H   0  0  0  0  0  0  0  0  0  0  0  0
  1  2  1  0
  1 14  1  0
  1  5  1  0
  1  3  1  0
  2  6  1  0
  2 13  1  0
  2  4  1  0
  3  7  1  0
  3 15  1  0
  3 11  1  0
  4  5  1  0
  4 20  1  0
  4 21  1  0
  5 22  1  0
  5 23  1  0
  6 16  1  0
  6 17  1  0
  6  8  1  0
  7 18  1  0
  7 19  1  0
  7  9  1  0
  8 24  1  0
  8 25  1  0
  8 26  1  0
  9 27  1  0
  9 28  1  0
  9 29  1  0
 10 12  1  0
 10 30  1  0
 10 31  1  0
 10 32  1  0
 11 33  1  0
 11 12  2  3
 12 34  1  0
M  END
