
     RDKit          3D

 34 34  0  0  0  0  0  0  0  0999 V2000
   -0.8940   -0.7471   -0.2952 C   0  0  0  0  0  0  0  0  0  0  0  0
   -1.6500    0.1748    0.6786 C   0  0  0  0  0  0  0  0  0  0  0  0
    0.6169   -0.8834    0.0121 C   0  0  0  0  0  0  0  0  0  0  0  0
   -2.4941   -1.0116    1.1422 C   0  0  0  0  0  0  0  0  0  0  0  0
   -1.7383   -1.9295    0.1916 C   0  0  0  0  0  0  0  0  0  0  0  0
   -2.4851    1.2721   -0.0056 C   0  0  0  0  0  0  0  0  0  0  0  0
    1.2556   -1.9660   -0.8845 C   0  0  0  0  0  0  0  0  0  0  0  0
   -1.6050    2.4068   -0.5217 C   0  0  0  0  0  0  0  0  0  0  0  0
    2.7057   -2.2577   -0.4960 C   0  0  0  0  0  0  0  0  0  0  0  0
    2.4426    2.5031    0.5126 C   0  0  0  0  0  0  0  0  0  0  0  0
    1.2958    0.4466   -0.2289 C   0  0  0  0  0  0  0  0  0  0  0  0
    1.8032    1.1755    0.7750 C   0  0  0  0  0  0  0  0  0  0  0  0
   -1.0237    0.5716    1.5093 H   0  0  0  0  0  0  0  0  0  0  0  0
   -1.0922   -0.5170   -1.3672 H   0  0  0  0  0  0  0  0  0  0  0  0
    0.7411   -1.1916    1.0762 H   0  0  0  0  0  0  0  0  0  0  0  0
   -3.2007    1.6901    0.7350 H   0  0  0  0  0  0  0  0  0  0  0  0
   -3.0734    0.8506   -0.8505 H   0  0  0  0  0  0  0  0  0  0  0  0
    0.6845   -2.9149   -0.7965 H   0  0  0  0  0  0  0  0  0  0  0  0
    1.2186   -1.6517   -1.9511 H   0  0  0  0  0  0  0  0  0  0  0  0
   -2.3122   -1.2679    2.2089 H   0  0  0  0  0  0  0  0  0  0  0  0
   -3.5737   -0.9347    0.8837 H   0  0  0  0  0  0  0  0  0  0  0  0
   -1.1666   -2.7107    0.7392 H   0  0  0  0  0  0  0  0  0  0  0  0
   -2.3924   -2.3387   -0.6090 H   0  0  0  0  0  0  0  0  0  0  0  0
   -0.9975    2.8323    0.3053 H   0  0  0  0  0  0  0  0  0  0  0  0
   -2.2450    3.2107   -0.9419 H   0  0  0  0  0  0  0  0  0  0  0  0
   -0.9309    2.0407   -1.3237 H   0  0  0  0  0  0  0  0  0  0  0  0
    2.7638   -2.5775    0.5662 H   0  0  0  0  0  0  0  0  0  0  0  0
    3.1031   -3.0749   -1.1341 H   0  0  0  0  0  0  0  0  0  0  0  0
    3.3399   -1.3584   -0.6439 H   0  0  0  0  0  0  0  0  0  0  0  0
    2.7908    2.9468    1.4686 H   0  0  0  0  0  0  0  0  0  0  0  0
    3.3142    2.3763   -0.1637 H   0  0  0  0  0  0  0  0  0  0  0  0
    1.7078    3.1913    0.0439 H   0  0  0  0  0  0  0  0  0  0  0  0
    1.3407    0.8307   -1.2452 H   0  0  0  0  0  0  0  0  0  0  0  0
    1.7505    0.8132    1.7978 H   0  0  0  0  0  0  0  0  0  0  0  0
  1  2  1  0
  1 14  1  0
  1  5  1  0
  1  3  1  0
  2  6  1  0
  2 13  1  0
  2  4  1  0
  3  7  1  0
  3 15  1  0
  3 11  1  0
  4  5  1  0
  4 20  1  0
  4 21  1  0
  5 22  1  0
  5 23  1  0
  6 16  1  0
  6 17  1  0
  6  8  1  0
  7 18  1  0
  7 19  1  0
  7  9  1  0
  8 24  1  0
  8 25  1  0
  8 26  1  0
  9 27  1  0
  9 28  1  0
  9 29  1  0
 10 12  1  0
 10 30  1  0
 10 31  1  0
 10 32  1  0
 11 33  1  0
 11 12  2  3
 12 34  1  0
M  END
