
     RDKit          3D

 20 21  0  0  0  0  0  0  0  0999 V2000
   -2.0496   -0.5468   -0.2186 C   0  0  0  0  0  0  0  0  0  0  0  0
   -0.9871   -1.5901   -0.1651 C   0  0  0  0  0  0  0  0  0  0  0  0
    0.3155   -0.8843   -0.0602 C   0  0  0  0  0  0  0  0  0  0  0  0
   -1.3512    0.7471    0.0110 C   0  0  0  0  0  0  0  0  0  0  0  0
    0.0735    0.4478    0.0390 C   0  0  0  0  0  0  0  0  0  0  0  0
    1.5810   -1.3918   -0.0549 C   0  0  0  0  0  0  0  0  0  0  0  0
    1.1633    1.3167    0.1494 C   0  0  0  0  0  0  0  0  0  0  0  0
    2.4573    0.8421    0.1583 C   0  0  0  0  0  0  0  0  0  0  0  0
    2.6455   -0.5198    0.0548 C   0  0  0  0  0  0  0  0  0  0  0  0
   -1.9390    1.9253    0.1576 C   0  0  0  0  0  0  0  0  0  0  0  0
   -2.5795   -0.4935   -1.2049 H   0  0  0  0  0  0  0  0  0  0  0  0
   -2.7965   -0.6970    0.6102 H   0  0  0  0  0  0  0  0  0  0  0  0
   -0.9290   -2.2441   -1.0708 H   0  0  0  0  0  0  0  0  0  0  0  0
   -1.0819   -2.2177    0.7583 H   0  0  0  0  0  0  0  0  0  0  0  0
    1.0115    2.3849    0.2304 H   0  0  0  0  0  0  0  0  0  0  0  0
    3.6499   -0.9434    0.0572 H   0  0  0  0  0  0  0  0  0  0  0  0
    1.8016   -2.4682   -0.1341 H   0  0  0  0  0  0  0  0  0  0  0  0
    3.3046    1.5203    0.2444 H   0  0  0  0  0  0  0  0  0  0  0  0
   -1.2943    2.7981    0.3213 H   0  0  0  0  0  0  0  0  0  0  0  0
   -2.9958    2.0144    0.1169 H   0  0  0  0  0  0  0  0  0  0  0  0
  1  4  1  0
  1  2  1  0
  1 11  1  0
  1 12  1  0
  2  3  1  0
  2 13  1  0
  2 14  1  0
  3  5  2  0
  3  6  1  0
  4  5  1  0
  4 10  2  0
  5  7  1  0
  6  9  2  0
  6 17  1  0
  7  8  2  0
  7 15  1  0
  8  9  1  0
  8 18  1  0
  9 16  1  0
 10 19  1  0
 10 20  1  0
M  END
