
     RDKit          3D

 18 18  0  0  0  0  0  0  0  0999 V2000
    0.0811    0.1151    0.6011 C   0  0  0  0  0  0  0  0  0  0  0  0
    0.5385   -1.1294   -0.1335 C   0  0  0  0  0  0  0  0  0  0  0  0
    1.4686    0.6599    0.5964 C   0  0  0  0  0  0  0  0  0  0  0  0
   -0.9786    0.8618   -0.1514 C   0  0  0  0  0  0  0  0  0  0  0  0
    1.8080   -0.3575   -0.4705 C   0  0  0  0  0  0  0  0  0  0  0  0
   -2.1612   -0.0700   -0.3280 C   0  0  0  0  0  0  0  0  0  0  0  0
   -0.3073   -0.1029    1.6301 H   0  0  0  0  0  0  0  0  0  0  0  0
   -1.3363    1.7224    0.4609 H   0  0  0  0  0  0  0  0  0  0  0  0
   -0.6200    1.2605   -1.1233 H   0  0  0  0  0  0  0  0  0  0  0  0
    1.9944    0.3617    1.5512 H   0  0  0  0  0  0  0  0  0  0  0  0
    0.7704   -1.9722    0.5290 H   0  0  0  0  0  0  0  0  0  0  0  0
   -0.0386   -1.3695   -1.0488 H   0  0  0  0  0  0  0  0  0  0  0  0
    1.6166    1.7051    0.3203 H   0  0  0  0  0  0  0  0  0  0  0  0
    2.7552   -0.9115   -0.2817 H   0  0  0  0  0  0  0  0  0  0  0  0
    1.7752    0.1207   -1.4747 H   0  0  0  0  0  0  0  0  0  0  0  0
   -3.1122    0.5096   -0.4761 H   0  0  0  0  0  0  0  0  0  0  0  0
   -2.2784   -0.6625    0.5963 H   0  0  0  0  0  0  0  0  0  0  0  0
   -1.9755   -0.7413   -1.1726 H   0  0  0  0  0  0  0  0  0  0  0  0
  1  4  1  0
  1  2  1  0
  1  3  1  0
  1  7  1  0
  2  5  1  0
  2 11  1  0
  2 12  1  0
  3 13  1  0
  3  5  1  0
  3 10  1  0
  4  8  1  0
  4  9  1  0
  4  6  1  0
  5 14  1  0
  5 15  1  0
  6 16  1  0
  6 17  1  0
  6 18  1  0
M  END
