
     RDKit          3D

 15 15  0  0  0  0  0  0  0  0999 V2000
   -0.1960    0.4300   -0.3732 C   0  0  0  0  0  0  0  0  0  0  0  0
    0.8007    1.1831    0.4511 C   0  0  0  0  0  0  0  0  0  0  0  0
    0.6330   -0.7248   -0.8409 C   0  0  0  0  0  0  0  0  0  0  0  0
   -1.3565   -0.0381    0.4636 C   0  0  0  0  0  0  0  0  0  0  0  0
    1.9710    0.5666    0.4411 C   0  0  0  0  0  0  0  0  0  0  0  0
    1.8657   -0.6313   -0.3703 C   0  0  0  0  0  0  0  0  0  0  0  0
   -2.4623   -0.5295   -0.1022 C   0  0  0  0  0  0  0  0  0  0  0  0
   -0.5332    1.0542   -1.2291 H   0  0  0  0  0  0  0  0  0  0  0  0
    0.6051    2.1084    0.9775 H   0  0  0  0  0  0  0  0  0  0  0  0
    0.2865   -1.5234   -1.4841 H   0  0  0  0  0  0  0  0  0  0  0  0
   -1.2950   -0.0000    1.5483 H   0  0  0  0  0  0  0  0  0  0  0  0
    2.8587    0.9090    0.9560 H   0  0  0  0  0  0  0  0  0  0  0  0
    2.6614   -1.3375   -0.5665 H   0  0  0  0  0  0  0  0  0  0  0  0
   -3.2840   -0.8721    0.5184 H   0  0  0  0  0  0  0  0  0  0  0  0
   -2.5551   -0.5946   -1.1822 H   0  0  0  0  0  0  0  0  0  0  0  0
  1  2  1  0
  1  3  1  0
  1  4  1  0
  1  8  1  0
  2  5  2  0
  2  9  1  0
  3  6  2  0
  3 10  1  0
  4  7  2  0
  4 11  1  0
  5  6  1  0
  5 12  1  0
  6 13  1  0
  7 14  1  0
  7 15  1  0
M  END
