
     RDKit          3D

 21 21  0  0  0  0  0  0  0  0999 V2000
    1.4770    0.5078   -0.6827 C   0  0  0  0  0  0  0  0  0  0  0  0
   -0.2394   -0.1762    1.1423 C   0  0  0  0  0  0  0  0  0  0  0  0
   -2.2656    1.1948   -0.1798 C   0  0  0  0  0  0  0  0  0  0  0  0
    0.0889    0.5313   -0.1271 C   0  0  0  0  0  0  0  0  0  0  0  0
   -0.8895    1.1885   -0.7575 C   0  0  0  0  0  0  0  0  0  0  0  0
   -1.5877   -0.8255    0.9539 C   0  0  0  0  0  0  0  0  0  0  0  0
   -2.5678   -0.1869    0.3253 C   0  0  0  0  0  0  0  0  0  0  0  0
    1.9714   -0.8386   -0.9881 C   0  0  0  0  0  0  0  0  0  0  0  0
    3.0714   -1.3317   -0.3936 C   0  0  0  0  0  0  0  0  0  0  0  0
    1.5025    1.1095   -1.6048 H   0  0  0  0  0  0  0  0  0  0  0  0
    2.1833    0.9936    0.0477 H   0  0  0  0  0  0  0  0  0  0  0  0
   -0.4059    0.5835    1.9309 H   0  0  0  0  0  0  0  0  0  0  0  0
    0.5080   -0.9208    1.4169 H   0  0  0  0  0  0  0  0  0  0  0  0
   -2.9877    1.5363   -0.9289 H   0  0  0  0  0  0  0  0  0  0  0  0
   -2.3157    1.8461    0.7201 H   0  0  0  0  0  0  0  0  0  0  0  0
    1.4508   -1.4633   -1.7063 H   0  0  0  0  0  0  0  0  0  0  0  0
   -1.7954   -1.8274    1.3241 H   0  0  0  0  0  0  0  0  0  0  0  0
   -0.6272    1.6962   -1.6798 H   0  0  0  0  0  0  0  0  0  0  0  0
   -3.5592   -0.6403    0.1761 H   0  0  0  0  0  0  0  0  0  0  0  0
    3.5504   -0.6637    0.3146 H   0  0  0  0  0  0  0  0  0  0  0  0
    3.4374   -2.3132   -0.6119 H   0  0  0  0  0  0  0  0  0  0  0  0
  1  4  1  0
  1  8  1  0
  1 10  1  0
  1 11  1  0
  2  4  1  0
  2  6  1  0
  2 12  1  0
  2 13  1  0
  3  5  1  0
  3  7  1  0
  3 14  1  0
  3 15  1  0
  4  5  2  0
  5 18  1  0
  6  7  2  0
  6 17  1  0
  7 19  1  0
  8  9  2  0
  8 16  1  0
  9 20  1  0
  9 21  1  0
M  END
