
     RDKit          3D

 17 18  0  0  0  0  0  0  0  0999 V2000
   -0.4681    0.6245   -0.6021 C   0  0  0  0  0  0  0  0  0  0  0  0
   -0.0135   -0.7901   -0.4507 C   0  0  0  0  0  0  0  0  0  0  0  0
    0.3554    1.5359    0.2738 C   0  0  0  0  0  0  0  0  0  0  0  0
   -1.9005    0.5055   -0.1970 C   0  0  0  0  0  0  0  0  0  0  0  0
    1.3986   -1.1020   -0.2059 C   0  0  0  0  0  0  0  0  0  0  0  0
   -1.0250   -1.5904   -0.1565 C   0  0  0  0  0  0  0  0  0  0  0  0
    1.6188    1.2101    0.6013 C   0  0  0  0  0  0  0  0  0  0  0  0
   -2.2173   -0.7689   -0.0081 C   0  0  0  0  0  0  0  0  0  0  0  0
    2.1803   -0.1290    0.2797 C   0  0  0  0  0  0  0  0  0  0  0  0
   -0.3924    0.9426   -1.6639 H   0  0  0  0  0  0  0  0  0  0  0  0
   -0.0245    2.5183    0.5255 H   0  0  0  0  0  0  0  0  0  0  0  0
   -2.6031    1.3257   -0.1282 H   0  0  0  0  0  0  0  0  0  0  0  0
    3.2157   -0.3399    0.5138 H   0  0  0  0  0  0  0  0  0  0  0  0
    2.2308    1.9210    1.1413 H   0  0  0  0  0  0  0  0  0  0  0  0
    1.7798   -2.1073   -0.3341 H   0  0  0  0  0  0  0  0  0  0  0  0
   -0.9382   -2.6303    0.1309 H   0  0  0  0  0  0  0  0  0  0  0  0
   -3.1971   -1.1257    0.2802 H   0  0  0  0  0  0  0  0  0  0  0  0
  1  2  1  0
  1  3  1  0
  1  4  1  0
  1 10  1  0
  2  5  1  0
  2  6  2  0
  3  7  2  0
  3 11  1  0
  4  8  2  0
  4 12  1  0
  5  9  2  0
  5 15  1  0
  6  8  1  0
  6 16  1  0
  7  9  1  0
  7 14  1  0
  8 17  1  0
  9 13  1  0
M  END
