
     RDKit          3D

 22 23  0  0  0  0  0  0  0  0999 V2000
   -1.2137   -0.2767    0.5232 C   0  0  0  0  0  0  0  0  0  0  0  0
    0.0028   -0.3820   -0.4113 C   0  0  0  0  0  0  0  0  0  0  0  0
   -1.5243    1.2328    0.5758 C   0  0  0  0  0  0  0  0  0  0  0  0
   -2.4064   -1.1033    0.0338 C   0  0  0  0  0  0  0  0  0  0  0  0
    0.5912    0.9815   -0.3351 C   0  0  0  0  0  0  0  0  0  0  0  0
   -0.2434    1.8707    0.1663 C   0  0  0  0  0  0  0  0  0  0  0  0
    1.0172   -1.4287   -0.0106 C   0  0  0  0  0  0  0  0  0  0  0  0
    2.0237    1.2041   -0.5657 C   0  0  0  0  0  0  0  0  0  0  0  0
    2.3350   -1.1918   -0.1253 C   0  0  0  0  0  0  0  0  0  0  0  0
    2.8494    0.1544   -0.4821 C   0  0  0  0  0  0  0  0  0  0  0  0
   -0.9339   -0.6167    1.5470 H   0  0  0  0  0  0  0  0  0  0  0  0
   -0.3120   -0.5669   -1.4625 H   0  0  0  0  0  0  0  0  0  0  0  0
   -1.8077    1.5466    1.6033 H   0  0  0  0  0  0  0  0  0  0  0  0
   -2.3201    1.5225   -0.1447 H   0  0  0  0  0  0  0  0  0  0  0  0
   -2.1313   -2.1788    0.0011 H   0  0  0  0  0  0  0  0  0  0  0  0
   -3.2620   -0.9787    0.7308 H   0  0  0  0  0  0  0  0  0  0  0  0
   -2.7210   -0.7817   -0.9822 H   0  0  0  0  0  0  0  0  0  0  0  0
    0.6766   -2.4235    0.2482 H   0  0  0  0  0  0  0  0  0  0  0  0
    0.0121    2.9054    0.3565 H   0  0  0  0  0  0  0  0  0  0  0  0
    3.9144    0.2984   -0.6101 H   0  0  0  0  0  0  0  0  0  0  0  0
    3.0401   -1.9882    0.0750 H   0  0  0  0  0  0  0  0  0  0  0  0
    2.4136    2.2006   -0.7315 H   0  0  0  0  0  0  0  0  0  0  0  0
  1  2  1  0
  1  4  1  0
  1  3  1  0
  1 11  1  0
  2  5  1  0
  2  7  1  0
  2 12  1  0
  3  6  1  0
  3 13  1  0
  3 14  1  0
  4 15  1  0
  4 16  1  0
  4 17  1  0
  5  6  2  0
  5  8  1  0
  6 19  1  0
  7  9  2  0
  7 18  1  0
  8 10  2  0
  8 22  1  0
  9 10  1  0
  9 21  1  0
 10 20  1  0
M  END
