
     RDKit          3D

 21 21  0  0  0  0  0  0  0  0999 V2000
   -1.7179   -0.0893    0.5539 C   0  0  0  0  0  0  0  0  0  0  0  0
   -1.0031   -0.2499   -0.7762 C   0  0  0  0  0  0  0  0  0  0  0  0
   -3.2104   -0.2702    0.4383 C   0  0  0  0  0  0  0  0  0  0  0  0
    0.4510   -0.0346   -0.4445 C   0  0  0  0  0  0  0  0  0  0  0  0
    1.0143    1.2375   -0.4961 C   0  0  0  0  0  0  0  0  0  0  0  0
    1.2038   -1.1443   -0.0877 C   0  0  0  0  0  0  0  0  0  0  0  0
    2.3600    1.4398   -0.1895 C   0  0  0  0  0  0  0  0  0  0  0  0
    3.1006    0.3307    0.1641 C   0  0  0  0  0  0  0  0  0  0  0  0
    2.5333   -0.9272    0.2125 C   0  0  0  0  0  0  0  0  0  0  0  0
   -1.3147   -0.7976    1.2843 H   0  0  0  0  0  0  0  0  0  0  0  0
   -1.4758    0.9387    0.9168 H   0  0  0  0  0  0  0  0  0  0  0  0
   -1.3556    0.4963   -1.4933 H   0  0  0  0  0  0  0  0  0  0  0  0
   -1.1013   -1.2776   -1.1706 H   0  0  0  0  0  0  0  0  0  0  0  0
   -3.6021   -0.3984    1.4708 H   0  0  0  0  0  0  0  0  0  0  0  0
   -3.6184    0.6984    0.0436 H   0  0  0  0  0  0  0  0  0  0  0  0
   -3.4921   -1.0643   -0.2578 H   0  0  0  0  0  0  0  0  0  0  0  0
    0.3589    2.0483   -0.7831 H   0  0  0  0  0  0  0  0  0  0  0  0
    2.7793    2.4308   -0.2345 H   0  0  0  0  0  0  0  0  0  0  0  0
    4.1460    0.5129    0.3985 H   0  0  0  0  0  0  0  0  0  0  0  0
    3.1714   -1.7556    0.4979 H   0  0  0  0  0  0  0  0  0  0  0  0
    0.7728   -2.1242   -0.0473 H   0  0  0  0  0  0  0  0  0  0  0  0
  1  3  1  0
  1  2  1  0
  1 10  1  0
  1 11  1  0
  2  4  1  0
  2 12  1  0
  2 13  1  0
  3 14  1  0
  3 15  1  0
  3 16  1  0
  4  5  2  0
  4  6  1  0
  5  7  1  0
  5 17  1  0
  6  9  2  0
  6 21  1  0
  7  8  2  0
  7 18  1  0
  8  9  1  0
  8 19  1  0
  9 20  1  0
M  END
