
     RDKit          3D

 22 23  0  0  0  0  0  0  0  0999 V2000
   -0.1331    0.4283   -0.5486 C   0  0  0  0  0  0  0  0  0  0  0  0
   -1.2399    0.2651    0.4338 C   0  0  0  0  0  0  0  0  0  0  0  0
    0.5485   -0.8804   -0.6059 C   0  0  0  0  0  0  0  0  0  0  0  0
   -2.6133    0.3440   -0.2082 C   0  0  0  0  0  0  0  0  0  0  0  0
   -1.1053   -1.1164    0.9452 C   0  0  0  0  0  0  0  0  0  0  0  0
    0.7170    1.5690   -0.1340 C   0  0  0  0  0  0  0  0  0  0  0  0
   -0.1151   -1.7720    0.3793 C   0  0  0  0  0  0  0  0  0  0  0  0
    1.9880   -0.8712   -0.2420 C   0  0  0  0  0  0  0  0  0  0  0  0
    1.9804    1.4952    0.1713 C   0  0  0  0  0  0  0  0  0  0  0  0
    2.6525    0.2060    0.1143 C   0  0  0  0  0  0  0  0  0  0  0  0
   -1.1922    1.0272    1.2362 H   0  0  0  0  0  0  0  0  0  0  0  0
   -0.5342    0.6839   -1.5726 H   0  0  0  0  0  0  0  0  0  0  0  0
    0.5189   -1.3480   -1.6309 H   0  0  0  0  0  0  0  0  0  0  0  0
   -2.6018   -0.1927   -1.1789 H   0  0  0  0  0  0  0  0  0  0  0  0
   -3.3097   -0.1696    0.4890 H   0  0  0  0  0  0  0  0  0  0  0  0
   -2.9865    1.3800   -0.2996 H   0  0  0  0  0  0  0  0  0  0  0  0
    0.2390    2.5377   -0.0843 H   0  0  0  0  0  0  0  0  0  0  0  0
   -1.7496   -1.5642    1.7116 H   0  0  0  0  0  0  0  0  0  0  0  0
    2.5006   -1.8225   -0.2799 H   0  0  0  0  0  0  0  0  0  0  0  0
    0.2125   -2.7901    0.5567 H   0  0  0  0  0  0  0  0  0  0  0  0
    3.7078    0.1914    0.3774 H   0  0  0  0  0  0  0  0  0  0  0  0
    2.5156    2.3995    0.4649 H   0  0  0  0  0  0  0  0  0  0  0  0
  1  2  1  0
  1  3  1  0
  1  6  1  0
  1 12  1  0
  2  4  1  0
  2  5  1  0
  2 11  1  0
  3  7  1  0
  3  8  1  0
  3 13  1  0
  4 14  1  0
  4 15  1  0
  4 16  1  0
  5  7  2  0
  5 18  1  0
  6  9  2  0
  6 17  1  0
  7 20  1  0
  8 10  2  0
  8 19  1  0
  9 10  1  0
  9 22  1  0
 10 21  1  0
M  END
