
     RDKit          3D

 34 34  0  0  0  0  0  0  0  0999 V2000
    2.2113    0.7812    0.2803 C   0  0  0  0  0  0  0  0  0  0  0  0
    1.4723    0.2203   -0.9454 C   0  0  0  0  0  0  0  0  0  0  0  0
    2.6516    1.9895   -0.5471 C   0  0  0  0  0  0  0  0  0  0  0  0
    1.9251    1.4303   -1.7635 C   0  0  0  0  0  0  0  0  0  0  0  0
   -0.0570    0.1514   -0.7808 C   0  0  0  0  0  0  0  0  0  0  0  0
    3.3965   -0.0813    0.7508 C   0  0  0  0  0  0  0  0  0  0  0  0
   -0.4713   -1.0221    0.1151 C   0  0  0  0  0  0  0  0  0  0  0  0
   -4.1970   -0.3657    0.9830 C   0  0  0  0  0  0  0  0  0  0  0  0
    2.9247   -1.3233    1.5012 C   0  0  0  0  0  0  0  0  0  0  0  0
   -4.8738   -0.0687   -0.3523 C   0  0  0  0  0  0  0  0  0  0  0  0
   -2.7026   -0.2401    0.8777 C   0  0  0  0  0  0  0  0  0  0  0  0
   -1.9680   -1.1361    0.2008 C   0  0  0  0  0  0  0  0  0  0  0  0
    1.5422    1.0827    1.1180 H   0  0  0  0  0  0  0  0  0  0  0  0
    1.9032   -0.7259   -1.3445 H   0  0  0  0  0  0  0  0  0  0  0  0
    4.0246   -0.3923   -0.1132 H   0  0  0  0  0  0  0  0  0  0  0  0
    4.0302    0.5242    1.4343 H   0  0  0  0  0  0  0  0  0  0  0  0
    3.7504    2.0606   -0.7075 H   0  0  0  0  0  0  0  0  0  0  0  0
    2.1958    2.9369   -0.1846 H   0  0  0  0  0  0  0  0  0  0  0  0
   -0.4407    1.1056   -0.3556 H   0  0  0  0  0  0  0  0  0  0  0  0
   -0.5131    0.0161   -1.7861 H   0  0  0  0  0  0  0  0  0  0  0  0
    2.6268    1.1487   -2.5790 H   0  0  0  0  0  0  0  0  0  0  0  0
    1.0970    2.0920   -2.1018 H   0  0  0  0  0  0  0  0  0  0  0  0
   -4.5671    0.3592    1.7394 H   0  0  0  0  0  0  0  0  0  0  0  0
   -4.4680   -1.3881    1.3250 H   0  0  0  0  0  0  0  0  0  0  0  0
   -0.0534   -0.8966    1.1370 H   0  0  0  0  0  0  0  0  0  0  0  0
   -0.0686   -1.9670   -0.3098 H   0  0  0  0  0  0  0  0  0  0  0  0
    2.2965   -1.0344    2.3705 H   0  0  0  0  0  0  0  0  0  0  0  0
    2.3410   -1.9853    0.8281 H   0  0  0  0  0  0  0  0  0  0  0  0
    3.8052   -1.8888    1.8724 H   0  0  0  0  0  0  0  0  0  0  0  0
   -5.9759   -0.1273   -0.2306 H   0  0  0  0  0  0  0  0  0  0  0  0
   -4.6079    0.9526   -0.6996 H   0  0  0  0  0  0  0  0  0  0  0  0
   -4.5638   -0.8092   -1.1199 H   0  0  0  0  0  0  0  0  0  0  0  0
   -2.2135    0.5843    1.3897 H   0  0  0  0  0  0  0  0  0  0  0  0
   -2.4527   -1.9834   -0.2768 H   0  0  0  0  0  0  0  0  0  0  0  0
  1  6  1  0
  1 13  1  0
  1  2  1  0
  1  3  1  0
  2 14  1  0
  2  4  1  0
  2  5  1  0
  3  4  1  0
  3 17  1  0
  3 18  1  0
  4 21  1  0
  4 22  1  0
  5  7  1  0
  5 19  1  0
  5 20  1  0
  6 15  1  0
  6 16  1  0
  6  9  1  0
  7 12  1  0
  7 25  1  0
  7 26  1  0
  8 11  1  0
  8 23  1  0
  8 24  1  0
  8 10  1  0
  9 27  1  0
  9 28  1  0
  9 29  1  0
 10 30  1  0
 10 31  1  0
 10 32  1  0
 11 33  1  0
 11 12  2  3
 12 34  1  0
M  END
