
     RDKit          3D

 21 22  0  0  0  0  0  0  0  0999 V2000
   -0.3585   -0.7584   -0.7744 C   0  0  0  0  0  0  0  0  0  0  0  0
    1.5558   -0.0942   -0.3936 C   0  0  0  0  0  0  0  0  0  0  0  0
    0.9261   -1.4672   -0.4535 C   0  0  0  0  0  0  0  0  0  0  0  0
   -1.5621   -0.8876    0.1821 C   0  0  0  0  0  0  0  0  0  0  0  0
    2.2197    0.2111    0.9509 C   0  0  0  0  0  0  0  0  0  0  0  0
    0.2214    0.6098   -0.5475 C   0  0  0  0  0  0  0  0  0  0  0  0
   -2.4218    0.3762    0.1148 C   0  0  0  0  0  0  0  0  0  0  0  0
   -0.4112    1.7432   -0.2964 C   0  0  0  0  0  0  0  0  0  0  0  0
   -1.8699    1.5999   -0.0741 C   0  0  0  0  0  0  0  0  0  0  0  0
    2.2302    0.1148   -1.2539 H   0  0  0  0  0  0  0  0  0  0  0  0
   -0.6646   -0.8823   -1.8381 H   0  0  0  0  0  0  0  0  0  0  0  0
    0.8990   -2.0068    0.5194 H   0  0  0  0  0  0  0  0  0  0  0  0
    1.3044   -2.0758   -1.3033 H   0  0  0  0  0  0  0  0  0  0  0  0
   -1.2108   -1.0162    1.2291 H   0  0  0  0  0  0  0  0  0  0  0  0
   -2.1700   -1.7741   -0.0962 H   0  0  0  0  0  0  0  0  0  0  0  0
    2.5553    1.2694    0.9689 H   0  0  0  0  0  0  0  0  0  0  0  0
    3.1055   -0.4444    1.0873 H   0  0  0  0  0  0  0  0  0  0  0  0
    1.5135    0.0457    1.7936 H   0  0  0  0  0  0  0  0  0  0  0  0
   -3.4886    0.2947    0.2800 H   0  0  0  0  0  0  0  0  0  0  0  0
   -2.4915    2.4846   -0.0299 H   0  0  0  0  0  0  0  0  0  0  0  0
    0.1179    2.6576   -0.0653 H   0  0  0  0  0  0  0  0  0  0  0  0
  1  3  1  0
  1  6  1  0
  1  4  1  0
  1 11  1  0
  2  3  1  0
  2  5  1  0
  2  6  1  0
  2 10  1  0
  3 12  1  0
  3 13  1  0
  4  7  1  0
  4 14  1  0
  4 15  1  0
  5 16  1  0
  5 17  1  0
  5 18  1  0
  6  8  2  0
  7  9  2  0
  7 19  1  0
  8  9  1  0
  8 21  1  0
  9 20  1  0
M  END
