
     RDKit          3D

 32 33  0  0  0  0  0  0  0  0999 V2000
   -0.3622    0.2802   -0.5048 C   0  0  0  0  0  0  0  0  0  0  0  0
   -2.4084    0.1640   -0.8612 C   0  0  0  0  0  0  0  0  0  0  0  0
    0.6619    0.5809    0.5601 C   0  0  0  0  0  0  0  0  0  0  0  0
   -1.4509   -0.6918   -0.0578 C   0  0  0  0  0  0  0  0  0  0  0  0
   -1.4635    1.3175   -0.5955 C   0  0  0  0  0  0  0  0  0  0  0  0
   -3.7810    0.3107   -0.2683 C   0  0  0  0  0  0  0  0  0  0  0  0
    1.4065   -0.5939    1.0537 C   0  0  0  0  0  0  0  0  0  0  0  0
    3.9981   -0.6345    0.2573 C   0  0  0  0  0  0  0  0  0  0  0  0
   -4.3637   -1.0895   -0.1688 C   0  0  0  0  0  0  0  0  0  0  0  0
    4.7787    0.3411   -0.5960 C   0  0  0  0  0  0  0  0  0  0  0  0
    2.5986   -0.1079    0.3740 C   0  0  0  0  0  0  0  0  0  0  0  0
    1.9454    0.9434   -0.0718 C   0  0  0  0  0  0  0  0  0  0  0  0
   -2.4274   -0.0515   -1.9326 H   0  0  0  0  0  0  0  0  0  0  0  0
    0.0780    0.0070   -1.4658 H   0  0  0  0  0  0  0  0  0  0  0  0
    0.2895    1.3016    1.3142 H   0  0  0  0  0  0  0  0  0  0  0  0
   -3.7461    0.8110    0.7185 H   0  0  0  0  0  0  0  0  0  0  0  0
   -4.3901    0.9152   -0.9398 H   0  0  0  0  0  0  0  0  0  0  0  0
   -1.6216   -0.6133    1.0275 H   0  0  0  0  0  0  0  0  0  0  0  0
   -1.3237   -1.7185   -0.4516 H   0  0  0  0  0  0  0  0  0  0  0  0
   -1.3809    2.0072   -1.4559 H   0  0  0  0  0  0  0  0  0  0  0  0
   -1.5880    1.8097    0.3737 H   0  0  0  0  0  0  0  0  0  0  0  0
    4.4484   -0.7331    1.2706 H   0  0  0  0  0  0  0  0  0  0  0  0
    3.9225   -1.5910   -0.2925 H   0  0  0  0  0  0  0  0  0  0  0  0
    1.5339   -0.6666    2.1579 H   0  0  0  0  0  0  0  0  0  0  0  0
    1.0128   -1.5698    0.7014 H   0  0  0  0  0  0  0  0  0  0  0  0
   -3.7762   -1.8297   -0.7572 H   0  0  0  0  0  0  0  0  0  0  0  0
   -4.2463   -1.4189    0.9018 H   0  0  0  0  0  0  0  0  0  0  0  0
   -5.4084   -1.1087   -0.5162 H   0  0  0  0  0  0  0  0  0  0  0  0
    4.4302    1.3631   -0.3113 H   0  0  0  0  0  0  0  0  0  0  0  0
    5.8651    0.3070   -0.3804 H   0  0  0  0  0  0  0  0  0  0  0  0
    4.5220    0.1664   -1.6463 H   0  0  0  0  0  0  0  0  0  0  0  0
    2.2467    1.7928   -0.6948 H   0  0  0  0  0  0  0  0  0  0  0  0
  1  4  1  0
  1  5  1  0
  1 14  1  0
  1  3  1  0
  2  6  1  0
  2 13  1  0
  2  5  1  0
  2  4  1  0
  3  7  1  0
  3 12  1  0
  3 15  1  0
  4 18  1  0
  4 19  1  0
  5 20  1  0
  5 21  1  0
  6 16  1  0
  6 17  1  0
  6  9  1  0
  7 11  1  0
  7 24  1  0
  7 25  1  0
  8 11  1  0
  8 22  1  0
  8 23  1  0
  8 10  1  0
  9 26  1  0
  9 27  1  0
  9 28  1  0
 10 29  1  0
 10 30  1  0
 10 31  1  0
 11 12  2  0
 12 32  1  0
M  END
