
     RDKit          3D

 32 33  0  0  0  0  0  0  0  0999 V2000
   -0.2465   -0.0573   -0.8431 C   0  0  0  0  0  0  0  0  0  0  0  0
   -2.3827    0.0927   -1.1467 C   0  0  0  0  0  0  0  0  0  0  0  0
    0.4515    0.1367    0.5196 C   0  0  0  0  0  0  0  0  0  0  0  0
   -1.4174   -1.0387   -0.7876 C   0  0  0  0  0  0  0  0  0  0  0  0
   -1.2122    1.0749   -1.1949 C   0  0  0  0  0  0  0  0  0  0  0  0
   -3.4065    0.4223   -0.0463 C   0  0  0  0  0  0  0  0  0  0  0  0
    1.3752   -0.9095    0.8661 C   0  0  0  0  0  0  0  0  0  0  0  0
    3.9773   -0.0029    0.9611 C   0  0  0  0  0  0  0  0  0  0  0  0
   -4.5191   -0.6210    0.0079 C   0  0  0  0  0  0  0  0  0  0  0  0
    4.7066    0.3177   -0.3378 C   0  0  0  0  0  0  0  0  0  0  0  0
    2.4962    0.0742    0.7679 C   0  0  0  0  0  0  0  0  0  0  0  0
    1.6006    1.0891    0.4287 C   0  0  0  0  0  0  0  0  0  0  0  0
   -2.8494   -0.0453   -2.1480 H   0  0  0  0  0  0  0  0  0  0  0  0
    0.4548   -0.2840   -1.6791 H   0  0  0  0  0  0  0  0  0  0  0  0
   -0.2414    0.4037    1.3501 H   0  0  0  0  0  0  0  0  0  0  0  0
   -2.9104    0.4830    0.9476 H   0  0  0  0  0  0  0  0  0  0  0  0
   -3.8610    1.4130   -0.2636 H   0  0  0  0  0  0  0  0  0  0  0  0
   -1.5865   -1.4780    0.2210 H   0  0  0  0  0  0  0  0  0  0  0  0
   -1.3573   -1.8061   -1.5897 H   0  0  0  0  0  0  0  0  0  0  0  0
   -1.0381    1.4677   -2.2204 H   0  0  0  0  0  0  0  0  0  0  0  0
   -1.2640    1.8792   -0.4268 H   0  0  0  0  0  0  0  0  0  0  0  0
    4.2806    0.7190    1.7486 H   0  0  0  0  0  0  0  0  0  0  0  0
    4.2490   -1.0273    1.2931 H   0  0  0  0  0  0  0  0  0  0  0  0
    1.2463   -1.2799    1.9070 H   0  0  0  0  0  0  0  0  0  0  0  0
    1.4777   -1.7229    0.1132 H   0  0  0  0  0  0  0  0  0  0  0  0
   -5.0475   -0.6717   -0.9679 H   0  0  0  0  0  0  0  0  0  0  0  0
   -4.1034   -1.6215    0.2513 H   0  0  0  0  0  0  0  0  0  0  0  0
   -5.2518   -0.3418    0.7940 H   0  0  0  0  0  0  0  0  0  0  0  0
    4.4666    1.3502   -0.6707 H   0  0  0  0  0  0  0  0  0  0  0  0
    5.8026    0.2420   -0.1768 H   0  0  0  0  0  0  0  0  0  0  0  0
    4.4124   -0.4017   -1.1319 H   0  0  0  0  0  0  0  0  0  0  0  0
    1.6978    2.1442    0.1966 H   0  0  0  0  0  0  0  0  0  0  0  0
  1  4  1  0
  1  5  1  0
  1 14  1  0
  1  3  1  0
  2  6  1  0
  2 13  1  0
  2  5  1  0
  2  4  1  0
  3  7  1  0
  3 12  1  0
  3 15  1  0
  4 18  1  0
  4 19  1  0
  5 20  1  0
  5 21  1  0
  6 16  1  0
  6 17  1  0
  6  9  1  0
  7 11  1  0
  7 24  1  0
  7 25  1  0
  8 11  1  0
  8 22  1  0
  8 23  1  0
  8 10  1  0
  9 26  1  0
  9 27  1  0
  9 28  1  0
 10 29  1  0
 10 30  1  0
 10 31  1  0
 11 12  2  0
 12 32  1  0
M  END
