
     RDKit          3D

 20 21  0  0  0  0  0  0  0  0999 V2000
   -0.1832   -0.5677    0.6344 C   0  0  0  0  0  0  0  0  0  0  0  0
    2.4538    0.2294   -0.1719 C   0  0  0  0  0  0  0  0  0  0  0  0
    0.0392    0.7681   -0.0607 C   0  0  0  0  0  0  0  0  0  0  0  0
    0.8059   -1.5971    0.1314 C   0  0  0  0  0  0  0  0  0  0  0  0
    1.2787    1.1403   -0.4169 C   0  0  0  0  0  0  0  0  0  0  0  0
   -1.6036   -1.0596    0.4732 C   0  0  0  0  0  0  0  0  0  0  0  0
    2.0407   -1.2212   -0.2400 C   0  0  0  0  0  0  0  0  0  0  0  0
   -1.1141    1.6494   -0.3248 C   0  0  0  0  0  0  0  0  0  0  0  0
   -2.6045   -0.2362    0.1381 C   0  0  0  0  0  0  0  0  0  0  0  0
   -2.3562    1.1734   -0.2186 C   0  0  0  0  0  0  0  0  0  0  0  0
    0.0019   -0.4198    1.7201 H   0  0  0  0  0  0  0  0  0  0  0  0
    2.8638    0.4377    0.8388 H   0  0  0  0  0  0  0  0  0  0  0  0
    3.2460    0.4287   -0.9239 H   0  0  0  0  0  0  0  0  0  0  0  0
   -1.8400   -2.0818    0.7436 H   0  0  0  0  0  0  0  0  0  0  0  0
    0.5423   -2.6510    0.1128 H   0  0  0  0  0  0  0  0  0  0  0  0
    1.4493    2.0961   -0.8983 H   0  0  0  0  0  0  0  0  0  0  0  0
    2.7568   -1.9681   -0.5685 H   0  0  0  0  0  0  0  0  0  0  0  0
   -3.6189   -0.6132    0.1113 H   0  0  0  0  0  0  0  0  0  0  0  0
   -3.1973    1.8184   -0.4384 H   0  0  0  0  0  0  0  0  0  0  0  0
   -0.9605    2.6741   -0.6420 H   0  0  0  0  0  0  0  0  0  0  0  0
  1  3  1  0
  1  4  1  0
  1  6  1  0
  1 11  1  0
  2  5  1  0
  2  7  1  0
  2 12  1  0
  2 13  1  0
  3  8  1  0
  3  5  2  0
  4  7  2  0
  4 15  1  0
  5 16  1  0
  6  9  2  0
  6 14  1  0
  7 17  1  0
  8 10  2  0
  8 20  1  0
  9 10  1  0
  9 18  1  0
 10 19  1  0
M  END
