
     RDKit          3D

 22 23  0  0  0  0  0  0  0  0999 V2000
   -0.5607    0.6973   -0.3634 C   0  0  0  0  0  0  0  0  0  0  0  0
   -0.4134   -0.8399   -0.5110 C   0  0  0  0  0  0  0  0  0  0  0  0
    0.6554    1.4415    0.2143 C   0  0  0  0  0  0  0  0  0  0  0  0
   -1.8308    0.9088    0.4756 C   0  0  0  0  0  0  0  0  0  0  0  0
   -1.7661   -1.3439   -0.1339 C   0  0  0  0  0  0  0  0  0  0  0  0
    0.6386   -1.4865    0.3673 C   0  0  0  0  0  0  0  0  0  0  0  0
   -2.5272   -0.4016    0.3986 C   0  0  0  0  0  0  0  0  0  0  0  0
    1.9041    1.1232   -0.5584 C   0  0  0  0  0  0  0  0  0  0  0  0
    2.4896   -0.0784   -0.5061 C   0  0  0  0  0  0  0  0  0  0  0  0
    1.9448   -1.2019    0.2808 C   0  0  0  0  0  0  0  0  0  0  0  0
   -0.7575    1.1126   -1.3792 H   0  0  0  0  0  0  0  0  0  0  0  0
   -0.2077   -1.1022   -1.5722 H   0  0  0  0  0  0  0  0  0  0  0  0
    0.4671    2.5355    0.1570 H   0  0  0  0  0  0  0  0  0  0  0  0
    0.8050    1.1853    1.2863 H   0  0  0  0  0  0  0  0  0  0  0  0
   -2.4661    1.7148    0.0496 H   0  0  0  0  0  0  0  0  0  0  0  0
   -1.5982    1.1309    1.5397 H   0  0  0  0  0  0  0  0  0  0  0  0
    2.3851    1.9162   -1.1178 H   0  0  0  0  0  0  0  0  0  0  0  0
    0.3483   -2.3129    1.0068 H   0  0  0  0  0  0  0  0  0  0  0  0
   -2.0846   -2.3759   -0.2425 H   0  0  0  0  0  0  0  0  0  0  0  0
   -3.5270   -0.5839    0.7785 H   0  0  0  0  0  0  0  0  0  0  0  0
    3.4531   -0.2083   -0.9820 H   0  0  0  0  0  0  0  0  0  0  0  0
    2.6481   -1.8307    0.8119 H   0  0  0  0  0  0  0  0  0  0  0  0
  1  2  1  0
  1  3  1  0
  1  4  1  0
  1 11  1  0
  2  5  1  0
  2  6  1  0
  2 12  1  0
  3  8  1  0
  3 13  1  0
  3 14  1  0
  4  7  1  0
  4 15  1  0
  4 16  1  0
  5  7  2  0
  5 19  1  0
  6 10  2  0
  6 18  1  0
  7 20  1  0
  8  9  2  0
  8 17  1  0
  9 10  1  0
  9 21  1  0
 10 22  1  0
M  END
