
     RDKit          3D

 16 16  0  0  0  0  0  0  0  0999 V2000
    0.4202    0.2139   -0.0598 C   0  0  0  0  0  0  0  0  0  0  0  0
   -0.1679   -1.0639    0.0642 C   0  0  0  0  0  0  0  0  0  0  0  0
   -0.4121    1.3469   -0.0052 C   0  0  0  0  0  0  0  0  0  0  0  0
    1.8803    0.4231   -0.2457 C   0  0  0  0  0  0  0  0  0  0  0  0
   -1.5499   -1.1930    0.2374 C   0  0  0  0  0  0  0  0  0  0  0  0
   -2.3611   -0.0582    0.2893 C   0  0  0  0  0  0  0  0  0  0  0  0
   -1.7926    1.2105    0.1681 C   0  0  0  0  0  0  0  0  0  0  0  0
    2.7892   -0.5513   -0.3165 C   0  0  0  0  0  0  0  0  0  0  0  0
    2.2414    1.4415   -0.3311 H   0  0  0  0  0  0  0  0  0  0  0  0
    0.4202   -1.9682    0.0299 H   0  0  0  0  0  0  0  0  0  0  0  0
   -1.9928   -2.1763    0.3315 H   0  0  0  0  0  0  0  0  0  0  0  0
   -3.4300   -0.1622    0.4234 H   0  0  0  0  0  0  0  0  0  0  0  0
   -2.4219    2.0902    0.2084 H   0  0  0  0  0  0  0  0  0  0  0  0
    0.0070    2.3417   -0.0970 H   0  0  0  0  0  0  0  0  0  0  0  0
    3.8323   -0.2969   -0.4536 H   0  0  0  0  0  0  0  0  0  0  0  0
    2.5378   -1.5978   -0.2434 H   0  0  0  0  0  0  0  0  0  0  0  0
  1  2  2  0
  1  3  1  0
  1  4  1  0
  2  5  1  0
  2 10  1  0
  3  7  2  0
  3 14  1  0
  4  8  2  0
  4  9  1  0
  5  6  2  0
  5 11  1  0
  6  7  1  0
  6 12  1  0
  7 13  1  0
  8 15  1  0
  8 16  1  0
M  END
