
     RDKit          3D

 19 20  0  0  0  0  0  0  0  0999 V2000
   -2.1753    0.0200   -0.1463 C   0  0  0  0  0  0  0  0  0  0  0  0
   -1.3135    1.1919    0.2074 C   0  0  0  0  0  0  0  0  0  0  0  0
   -1.3733   -1.1474    0.3184 C   0  0  0  0  0  0  0  0  0  0  0  0
    0.0812    0.6895    0.0452 C   0  0  0  0  0  0  0  0  0  0  0  0
    0.0229   -0.6882    0.1136 C   0  0  0  0  0  0  0  0  0  0  0  0
    1.2662    1.3724   -0.1416 C   0  0  0  0  0  0  0  0  0  0  0  0
    1.1832   -1.3935   -0.0088 C   0  0  0  0  0  0  0  0  0  0  0  0
    2.4597    0.6547   -0.2678 C   0  0  0  0  0  0  0  0  0  0  0  0
    2.3610   -0.7205   -0.1941 C   0  0  0  0  0  0  0  0  0  0  0  0
   -3.1537    0.0419    0.4005 H   0  0  0  0  0  0  0  0  0  0  0  0
   -2.3963   -0.0483   -1.2343 H   0  0  0  0  0  0  0  0  0  0  0  0
   -1.4486    1.9540   -0.6014 H   0  0  0  0  0  0  0  0  0  0  0  0
   -1.5260    1.6116    1.1974 H   0  0  0  0  0  0  0  0  0  0  0  0
   -1.5812   -1.2752    1.4029 H   0  0  0  0  0  0  0  0  0  0  0  0
   -1.5399   -2.0907   -0.2360 H   0  0  0  0  0  0  0  0  0  0  0  0
    1.2885    2.4687   -0.1929 H   0  0  0  0  0  0  0  0  0  0  0  0
    3.4126    1.1459   -0.4154 H   0  0  0  0  0  0  0  0  0  0  0  0
    3.2681   -1.3294   -0.2872 H   0  0  0  0  0  0  0  0  0  0  0  0
    1.1646   -2.4577    0.0406 H   0  0  0  0  0  0  0  0  0  0  0  0
  1  2  1  0
  1  3  1  0
  1 10  1  0
  1 11  1  0
  2  4  1  0
  2 12  1  0
  2 13  1  0
  3  5  1  0
  3 14  1  0
  3 15  1  0
  4  5  2  0
  4  6  1  0
  5  7  1  0
  6  8  2  0
  6 16  1  0
  7  9  2  0
  7 19  1  0
  8  9  1  0
  8 17  1  0
  9 18  1  0
M  END
