
     RDKit          3D

 20 20  0  0  0  0  0  0  0  0999 V2000
   -3.1612    0.0618    0.2725 C   0  0  0  0  0  0  0  0  0  0  0  0
   -0.2782   -0.1678   -0.1181 C   0  0  0  0  0  0  0  0  0  0  0  0
   -2.1639    0.9006    1.0304 C   0  0  0  0  0  0  0  0  0  0  0  0
   -2.5422   -0.9051   -0.7038 C   0  0  0  0  0  0  0  0  0  0  0  0
   -0.8438    0.7985    0.8545 C   0  0  0  0  0  0  0  0  0  0  0  0
   -1.2235   -1.0093   -0.8817 C   0  0  0  0  0  0  0  0  0  0  0  0
    1.0432   -0.3152   -0.3382 C   0  0  0  0  0  0  0  0  0  0  0  0
    2.1079    0.4484    0.3427 C   0  0  0  0  0  0  0  0  0  0  0  0
    4.6077   -0.0048   -0.2432 C   0  0  0  0  0  0  0  0  0  0  0  0
    3.3589    0.2218    0.0497 C   0  0  0  0  0  0  0  0  0  0  0  0
   -3.8424    0.7389   -0.2841 H   0  0  0  0  0  0  0  0  0  0  0  0
   -3.7677   -0.5131    1.0032 H   0  0  0  0  0  0  0  0  0  0  0  0
   -2.5425    1.6170    1.7491 H   0  0  0  0  0  0  0  0  0  0  0  0
   -3.2009   -1.5401   -1.2832 H   0  0  0  0  0  0  0  0  0  0  0  0
    1.3640   -1.0495   -1.0710 H   0  0  0  0  0  0  0  0  0  0  0  0
   -0.2119    1.4438    1.4454 H   0  0  0  0  0  0  0  0  0  0  0  0
   -0.8517   -1.7284   -1.6027 H   0  0  0  0  0  0  0  0  0  0  0  0
    1.8966    1.2003    1.0863 H   0  0  0  0  0  0  0  0  0  0  0  0
    5.3895    0.5530    0.2539 H   0  0  0  0  0  0  0  0  0  0  0  0
    4.8622   -0.7509   -0.9835 H   0  0  0  0  0  0  0  0  0  0  0  0
  1  3  1  0
  1  4  1  0
  1 11  1  0
  1 12  1  0
  2  5  1  0
  2  6  1  0
  2  7  2  3
  3  5  2  0
  3 13  1  0
  4  6  2  0
  4 14  1  0
  5 16  1  0
  6 17  1  0
  7  8  1  0
  7 15  1  0
  8 10  2  0
  8 18  1  0
  9 10  2  0
  9 19  1  0
  9 20  1  0
M  END
