
     RDKit          3D

 20 20  0  0  0  0  0  0  0  0999 V2000
   -2.9253    0.7119   -0.0379 C   0  0  0  0  0  0  0  0  0  0  0  0
   -0.2615   -0.4033   -0.0630 C   0  0  0  0  0  0  0  0  0  0  0  0
   -1.8699    1.0855    0.9128 C   0  0  0  0  0  0  0  0  0  0  0  0
   -2.4673   -0.3023   -1.0110 C   0  0  0  0  0  0  0  0  0  0  0  0
   -0.6481    0.5928    0.9234 C   0  0  0  0  0  0  0  0  0  0  0  0
   -1.2581   -0.8203   -1.0363 C   0  0  0  0  0  0  0  0  0  0  0  0
    0.9390   -0.9093   -0.0783 C   0  0  0  0  0  0  0  0  0  0  0  0
    1.9658   -0.5291    0.8662 C   0  0  0  0  0  0  0  0  0  0  0  0
    4.2717    0.0984   -0.2264 C   0  0  0  0  0  0  0  0  0  0  0  0
    3.1300   -0.2085    0.3706 C   0  0  0  0  0  0  0  0  0  0  0  0
   -3.3118    1.5760   -0.6127 H   0  0  0  0  0  0  0  0  0  0  0  0
   -3.7898    0.2810    0.5065 H   0  0  0  0  0  0  0  0  0  0  0  0
   -2.1131    1.8258    1.6672 H   0  0  0  0  0  0  0  0  0  0  0  0
   -3.1709   -0.6461   -1.7563 H   0  0  0  0  0  0  0  0  0  0  0  0
    1.2097   -1.6547   -0.8254 H   0  0  0  0  0  0  0  0  0  0  0  0
    0.0592    0.9424    1.6774 H   0  0  0  0  0  0  0  0  0  0  0  0
   -0.9533   -1.5620   -1.7626 H   0  0  0  0  0  0  0  0  0  0  0  0
    1.8751   -0.4823    1.9224 H   0  0  0  0  0  0  0  0  0  0  0  0
    4.3800    1.1163   -0.4938 H   0  0  0  0  0  0  0  0  0  0  0  0
    4.9384   -0.7121   -0.3647 H   0  0  0  0  0  0  0  0  0  0  0  0
  1  3  1  0
  1  4  1  0
  1 11  1  0
  1 12  1  0
  2  5  1  0
  2  6  1  0
  2  7  2  3
  3  5  2  0
  3 13  1  0
  4  6  2  0
  4 14  1  0
  5 16  1  0
  6 17  1  0
  7  8  1  0
  7 15  1  0
  8 10  2  0
  8 18  1  0
  9 10  2  0
  9 19  1  0
  9 20  1  0
M  END
