
     RDKit          3D

 20 20  0  0  0  0  0  0  0  0999 V2000
    1.0129   -0.7423    0.0253 C   0  0  0  0  0  0  0  0  0  0  0  0
    1.9008    0.5029    0.0679 C   0  0  0  0  0  0  0  0  0  0  0  0
   -0.4413   -0.3553    0.0674 C   0  0  0  0  0  0  0  0  0  0  0  0
   -1.1392   -0.0899   -1.1229 C   0  0  0  0  0  0  0  0  0  0  0  0
   -1.0987   -0.2017    1.2997 C   0  0  0  0  0  0  0  0  0  0  0  0
   -2.4814    0.3004   -1.0801 C   0  0  0  0  0  0  0  0  0  0  0  0
   -2.4410    0.1888    1.3379 C   0  0  0  0  0  0  0  0  0  0  0  0
   -3.1323    0.4377    0.1490 C   0  0  0  0  0  0  0  0  0  0  0  0
    3.3175    0.1241    0.0267 C   0  0  0  0  0  0  0  0  0  0  0  0
    4.4819   -0.1866   -0.0071 C   0  0  0  0  0  0  0  0  0  0  0  0
    1.2505   -1.4036    0.8882 H   0  0  0  0  0  0  0  0  0  0  0  0
    1.2206   -1.3210   -0.9024 H   0  0  0  0  0  0  0  0  0  0  0  0
    1.6810    1.1568   -0.8032 H   0  0  0  0  0  0  0  0  0  0  0  0
    1.7112    1.0734    1.0023 H   0  0  0  0  0  0  0  0  0  0  0  0
   -0.6438   -0.1838   -2.0814 H   0  0  0  0  0  0  0  0  0  0  0  0
   -0.5718   -0.3828    2.2285 H   0  0  0  0  0  0  0  0  0  0  0  0
   -3.0159    0.4998   -1.9999 H   0  0  0  0  0  0  0  0  0  0  0  0
   -2.9442    0.3018    2.2894 H   0  0  0  0  0  0  0  0  0  0  0  0
   -4.1708    0.7411    0.1804 H   0  0  0  0  0  0  0  0  0  0  0  0
    5.5039   -0.4596   -0.0367 H   0  0  0  0  0  0  0  0  0  0  0  0
  1  3  1  0
  1  2  1  0
  1 11  1  0
  1 12  1  0
  2  9  1  0
  2 13  1  0
  2 14  1  0
  3  4  2  0
  3  5  1  0
  4  6  1  0
  4 15  1  0
  5  7  2  0
  5 16  1  0
  6  8  2  0
  6 17  1  0
  7  8  1  0
  7 18  1  0
  8 19  1  0
  9 10  3  0
 10 20  1  0
M  END
