
     RDKit          3D

 17 17  0  0  0  0  0  0  0  0999 V2000
    0.2690    1.2384   -0.3522 C   0  0  0  0  0  0  0  0  0  0  0  0
   -1.5175   -1.0446    0.1134 C   0  0  0  0  0  0  0  0  0  0  0  0
    2.2745   -0.3585   -0.0974 C   0  0  0  0  0  0  0  0  0  0  0  0
    0.7799   -0.1566   -0.1026 C   0  0  0  0  0  0  0  0  0  0  0  0
   -0.0404   -1.1785    0.1063 C   0  0  0  0  0  0  0  0  0  0  0  0
   -1.1321    1.3879    0.1194 C   0  0  0  0  0  0  0  0  0  0  0  0
   -1.9483    0.3618    0.3330 C   0  0  0  0  0  0  0  0  0  0  0  0
    0.8874    1.8880    0.3021 H   0  0  0  0  0  0  0  0  0  0  0  0
    0.3967    1.4884   -1.4239 H   0  0  0  0  0  0  0  0  0  0  0  0
   -1.8847   -1.6653    0.9762 H   0  0  0  0  0  0  0  0  0  0  0  0
   -1.9142   -1.4627   -0.8331 H   0  0  0  0  0  0  0  0  0  0  0  0
    2.7942    0.3990   -0.7128 H   0  0  0  0  0  0  0  0  0  0  0  0
    2.4369   -1.3496   -0.6119 H   0  0  0  0  0  0  0  0  0  0  0  0
    2.6804   -0.3464    0.9280 H   0  0  0  0  0  0  0  0  0  0  0  0
   -1.5004    2.3957    0.2965 H   0  0  0  0  0  0  0  0  0  0  0  0
   -2.9572    0.5664    0.6779 H   0  0  0  0  0  0  0  0  0  0  0  0
    0.3756   -2.1636    0.2813 H   0  0  0  0  0  0  0  0  0  0  0  0
  1  4  1  0
  1  6  1  0
  1  8  1  0
  1  9  1  0
  2  5  1  0
  2  7  1  0
  2 10  1  0
  2 11  1  0
  3  4  1  0
  3 12  1  0
  3 13  1  0
  3 14  1  0
  4  5  2  0
  5 17  1  0
  6  7  2  0
  6 15  1  0
  7 16  1  0
M  END
