
     RDKit          3D

 32 32  0  0  0  0  0  0  0  0999 V2000
   -1.0290   -0.0328   -0.2100 C   0  0  0  0  0  0  0  0  0  0  0  0
    0.3397   -0.5441    0.3195 C   0  0  0  0  0  0  0  0  0  0  0  0
   -1.7729   -1.1194   -1.0370 C   0  0  0  0  0  0  0  0  0  0  0  0
    1.3288   -0.8275   -0.6903 C   0  0  0  0  0  0  0  0  0  0  0  0
   -1.8862    0.5141    0.9601 C   0  0  0  0  0  0  0  0  0  0  0  0
    3.5362    0.8087   -0.4778 C   0  0  0  0  0  0  0  0  0  0  0  0
   -2.1567   -2.3742   -0.2480 C   0  0  0  0  0  0  0  0  0  0  0  0
    4.5117    0.6100    0.6759 C   0  0  0  0  0  0  0  0  0  0  0  0
    2.1898    0.2570   -0.1319 C   0  0  0  0  0  0  0  0  0  0  0  0
    1.2231    0.5566    0.8273 C   0  0  0  0  0  0  0  0  0  0  0  0
   -3.2114    1.0669    0.5056 C   0  0  0  0  0  0  0  0  0  0  0  0
   -3.2964    2.1935   -0.2080 C   0  0  0  0  0  0  0  0  0  0  0  0
   -0.8330    0.8175   -0.9028 H   0  0  0  0  0  0  0  0  0  0  0  0
    0.2477   -1.3511    1.0800 H   0  0  0  0  0  0  0  0  0  0  0  0
   -2.6956   -0.6838   -1.4765 H   0  0  0  0  0  0  0  0  0  0  0  0
   -1.1433   -1.4292   -1.8976 H   0  0  0  0  0  0  0  0  0  0  0  0
   -1.3372    1.3242    1.4871 H   0  0  0  0  0  0  0  0  0  0  0  0
   -2.0645   -0.2869    1.7083 H   0  0  0  0  0  0  0  0  0  0  0  0
    3.4396    1.8916   -0.7029 H   0  0  0  0  0  0  0  0  0  0  0  0
    3.9223    0.2898   -1.3808 H   0  0  0  0  0  0  0  0  0  0  0  0
    1.0321   -0.5932   -1.7361 H   0  0  0  0  0  0  0  0  0  0  0  0
    1.8009   -1.8275   -0.5731 H   0  0  0  0  0  0  0  0  0  0  0  0
   -2.6597   -3.0923   -0.9294 H   0  0  0  0  0  0  0  0  0  0  0  0
   -1.2585   -2.8732    0.1691 H   0  0  0  0  0  0  0  0  0  0  0  0
   -2.8653   -2.1301    0.5697 H   0  0  0  0  0  0  0  0  0  0  0  0
    5.5058    1.0176    0.3955 H   0  0  0  0  0  0  0  0  0  0  0  0
    4.6215   -0.4720    0.9050 H   0  0  0  0  0  0  0  0  0  0  0  0
    4.1512    1.1431    1.5816 H   0  0  0  0  0  0  0  0  0  0  0  0
   -4.1229    0.5482    0.7881 H   0  0  0  0  0  0  0  0  0  0  0  0
    1.1541    1.2807    1.6318 H   0  0  0  0  0  0  0  0  0  0  0  0
   -2.4049    2.7452   -0.4914 H   0  0  0  0  0  0  0  0  0  0  0  0
   -4.2671    2.5722   -0.5111 H   0  0  0  0  0  0  0  0  0  0  0  0
  1  3  1  0
  1 13  1  0
  1  5  1  0
  1  2  1  0
  2  4  1  0
  2 10  1  0
  2 14  1  0
  3 15  1  0
  3 16  1  0
  3  7  1  0
  4  9  1  0
  4 21  1  0
  4 22  1  0
  5 17  1  0
  5 11  1  0
  5 18  1  0
  6  9  1  0
  6 19  1  0
  6 20  1  0
  6  8  1  0
  7 23  1  0
  7 24  1  0
  7 25  1  0
  8 26  1  0
  8 27  1  0
  8 28  1  0
  9 10  2  0
 10 30  1  0
 11 29  1  0
 11 12  2  0
 12 31  1  0
 12 32  1  0
M  END
