
     RDKit          3D

 32 32  0  0  0  0  0  0  0  0999 V2000
    0.4206   -1.2474   -0.8936 C   0  0  0  0  0  0  0  0  0  0  0  0
    2.1205   -0.0258   -0.3342 C   0  0  0  0  0  0  0  0  0  0  0  0
   -0.8544   -1.4514   -0.0430 C   0  0  0  0  0  0  0  0  0  0  0  0
    1.7276   -1.4891   -0.1321 C   0  0  0  0  0  0  0  0  0  0  0  0
    0.8124    0.2211   -1.0861 C   0  0  0  0  0  0  0  0  0  0  0  0
    2.2457    0.7572    0.9849 C   0  0  0  0  0  0  0  0  0  0  0  0
   -1.0910   -2.9398    0.2350 C   0  0  0  0  0  0  0  0  0  0  0  0
    2.5614    2.2287    0.7304 C   0  0  0  0  0  0  0  0  0  0  0  0
   -2.5776    2.2815    0.8342 C   0  0  0  0  0  0  0  0  0  0  0  0
   -2.0475   -0.8898   -0.7690 C   0  0  0  0  0  0  0  0  0  0  0  0
   -3.3343    1.1667    0.1923 C   0  0  0  0  0  0  0  0  0  0  0  0
   -2.7006    0.1349   -0.2917 C   0  0  0  0  0  0  0  0  0  0  0  0
    3.0155    0.0770   -0.9882 H   0  0  0  0  0  0  0  0  0  0  0  0
    0.3912   -1.7988   -1.8610 H   0  0  0  0  0  0  0  0  0  0  0  0
   -0.7297   -0.9348    0.9376 H   0  0  0  0  0  0  0  0  0  0  0  0
    1.3079    0.6805    1.5787 H   0  0  0  0  0  0  0  0  0  0  0  0
    3.0699    0.3173    1.5868 H   0  0  0  0  0  0  0  0  0  0  0  0
    1.5886   -1.7699    0.9357 H   0  0  0  0  0  0  0  0  0  0  0  0
    2.4048   -2.1830   -0.6763 H   0  0  0  0  0  0  0  0  0  0  0  0
    0.9865    0.4706   -2.1555 H   0  0  0  0  0  0  0  0  0  0  0  0
    0.1325    0.9412   -0.5794 H   0  0  0  0  0  0  0  0  0  0  0  0
    2.6720    2.7574    1.7005 H   0  0  0  0  0  0  0  0  0  0  0  0
    3.5109    2.3264    0.1624 H   0  0  0  0  0  0  0  0  0  0  0  0
    1.7408    2.7099    0.1576 H   0  0  0  0  0  0  0  0  0  0  0  0
   -1.1990   -3.5054   -0.7158 H   0  0  0  0  0  0  0  0  0  0  0  0
   -0.2437   -3.3685    0.8100 H   0  0  0  0  0  0  0  0  0  0  0  0
   -2.0151   -3.0725    0.8377 H   0  0  0  0  0  0  0  0  0  0  0  0
   -3.2859    3.0593    1.1884 H   0  0  0  0  0  0  0  0  0  0  0  0
   -2.0000    1.8984    1.7024 H   0  0  0  0  0  0  0  0  0  0  0  0
   -1.8792    2.7384    0.1011 H   0  0  0  0  0  0  0  0  0  0  0  0
   -4.4138    1.2079    0.1299 H   0  0  0  0  0  0  0  0  0  0  0  0
   -2.3368   -1.2981   -1.7292 H   0  0  0  0  0  0  0  0  0  0  0  0
  1  4  1  0
  1  5  1  0
  1 14  1  0
  1  3  1  0
  2  6  1  0
  2 13  1  0
  2  5  1  0
  2  4  1  0
  3  7  1  0
  3 15  1  0
  3 10  1  0
  4 18  1  0
  4 19  1  0
  5 20  1  0
  5 21  1  0
  6 16  1  0
  6 17  1  0
  6  8  1  0
  7 26  1  0
  7 27  1  0
  7 25  1  0
  8 22  1  0
  8 23  1  0
  8 24  1  0
  9 11  1  0
  9 28  1  0
  9 29  1  0
  9 30  1  0
 10 12  2  0
 10 32  1  0
 11 31  1  0
 11 12  2  0
M  END
