
     RDKit          3D

 20 21  0  0  0  0  0  0  0  0999 V2000
   -1.5495   -1.1407   -0.1324 C   0  0  0  0  0  0  0  0  0  0  0  0
    2.2660   -0.9731   -0.2655 C   0  0  0  0  0  0  0  0  0  0  0  0
   -0.1733   -0.5912   -0.0941 C   0  0  0  0  0  0  0  0  0  0  0  0
    0.0464    0.8270    0.1468 C   0  0  0  0  0  0  0  0  0  0  0  0
    0.8501   -1.3892   -0.2785 C   0  0  0  0  0  0  0  0  0  0  0  0
    2.4334    0.4809   -0.0161 C   0  0  0  0  0  0  0  0  0  0  0  0
   -2.5674   -0.0981    0.0950 C   0  0  0  0  0  0  0  0  0  0  0  0
    1.4219    1.3117    0.1736 C   0  0  0  0  0  0  0  0  0  0  0  0
   -0.9205    1.6823    0.3389 C   0  0  0  0  0  0  0  0  0  0  0  0
   -2.2914    1.1785    0.3085 C   0  0  0  0  0  0  0  0  0  0  0  0
    2.8069   -1.4706    0.5863 H   0  0  0  0  0  0  0  0  0  0  0  0
    2.8138   -1.2405   -1.2029 H   0  0  0  0  0  0  0  0  0  0  0  0
   -1.7071   -2.0003    0.5495 H   0  0  0  0  0  0  0  0  0  0  0  0
   -1.6627   -1.5501   -1.1791 H   0  0  0  0  0  0  0  0  0  0  0  0
    0.6453   -2.4366   -0.4546 H   0  0  0  0  0  0  0  0  0  0  0  0
    3.4434    0.8562    0.0071 H   0  0  0  0  0  0  0  0  0  0  0  0
   -3.6041   -0.4066    0.0848 H   0  0  0  0  0  0  0  0  0  0  0  0
    1.6223    2.3637    0.3507 H   0  0  0  0  0  0  0  0  0  0  0  0
   -0.7465    2.7365    0.5175 H   0  0  0  0  0  0  0  0  0  0  0  0
   -3.1268    1.8601    0.4644 H   0  0  0  0  0  0  0  0  0  0  0  0
  1  3  1  0
  1  7  1  0
  1 13  1  0
  1 14  1  0
  2  5  1  0
  2  6  1  0
  2 11  1  0
  2 12  1  0
  3  4  1  0
  3  5  2  0
  4  8  1  0
  4  9  2  0
  5 15  1  0
  6  8  2  0
  6 16  1  0
  7 10  2  0
  7 17  1  0
  8 18  1  0
  9 10  1  0
  9 19  1  0
 10 20  1  0
M  END
