
     RDKit          3D

 19 20  0  0  0  0  0  0  0  0999 V2000
   -0.2244   -0.7630   -0.4204 C   0  0  0  0  0  0  0  0  0  0  0  0
    1.0797   -1.2467    0.2369 C   0  0  0  0  0  0  0  0  0  0  0  0
   -1.6903    1.1199    0.2142 C   0  0  0  0  0  0  0  0  0  0  0  0
   -0.3485    0.7203   -0.2895 C   0  0  0  0  0  0  0  0  0  0  0  0
   -1.4676   -1.2265    0.2617 C   0  0  0  0  0  0  0  0  0  0  0  0
   -2.2760   -0.2100    0.5670 C   0  0  0  0  0  0  0  0  0  0  0  0
    2.2361   -0.3908   -0.2346 C   0  0  0  0  0  0  0  0  0  0  0  0
    0.7169    1.5249   -0.3698 C   0  0  0  0  0  0  0  0  0  0  0  0
    2.0610    0.9183   -0.4830 C   0  0  0  0  0  0  0  0  0  0  0  0
   -0.2451   -1.0504   -1.4945 H   0  0  0  0  0  0  0  0  0  0  0  0
    1.0055   -1.1617    1.3434 H   0  0  0  0  0  0  0  0  0  0  0  0
    1.2657   -2.3099   -0.0253 H   0  0  0  0  0  0  0  0  0  0  0  0
   -2.2817    1.6220   -0.5800 H   0  0  0  0  0  0  0  0  0  0  0  0
   -1.6061    1.7530    1.1233 H   0  0  0  0  0  0  0  0  0  0  0  0
   -3.2489   -0.3404    1.0292 H   0  0  0  0  0  0  0  0  0  0  0  0
   -1.7233   -2.2677    0.4292 H   0  0  0  0  0  0  0  0  0  0  0  0
    3.2238   -0.8263   -0.3167 H   0  0  0  0  0  0  0  0  0  0  0  0
    2.9096    1.5392   -0.7395 H   0  0  0  0  0  0  0  0  0  0  0  0
    0.6138    2.5959   -0.2517 H   0  0  0  0  0  0  0  0  0  0  0  0
  1  4  1  0
  1  5  1  0
  1  2  1  0
  1 10  1  0
  2  7  1  0
  2 11  1  0
  2 12  1  0
  3  4  1  0
  3  6  1  0
  3 13  1  0
  3 14  1  0
  4  8  2  0
  5  6  2  0
  5 16  1  0
  6 15  1  0
  7  9  2  0
  7 17  1  0
  8  9  1  0
  8 19  1  0
  9 18  1  0
M  END
