
     RDKit          3D

 16 16  0  0  0  0  0  0  0  0999 V2000
   -0.5478   -0.1249    0.3017 C   0  0  0  0  0  0  0  0  0  0  0  0
    0.8976    0.3996    0.3591 C   0  0  0  0  0  0  0  0  0  0  0  0
   -1.0562   -0.4136   -1.1082 C   0  0  0  0  0  0  0  0  0  0  0  0
   -1.5954    0.9745    0.4430 C   0  0  0  0  0  0  0  0  0  0  0  0
    1.9053   -0.7249    0.1364 C   0  0  0  0  0  0  0  0  0  0  0  0
   -2.1042    0.6757   -0.9571 C   0  0  0  0  0  2  0  0  0  0  0  0
   -0.7341   -0.9681    1.0045 H   0  0  0  0  0  0  0  0  0  0  0  0
    1.0591    1.1941   -0.4027 H   0  0  0  0  0  0  0  0  0  0  0  0
    1.0789    0.8439    1.3617 H   0  0  0  0  0  0  0  0  0  0  0  0
   -1.5192   -1.4197   -1.1975 H   0  0  0  0  0  0  0  0  0  0  0  0
   -0.3338   -0.1736   -1.9183 H   0  0  0  0  0  0  0  0  0  0  0  0
   -2.3594    0.7411    1.2153 H   0  0  0  0  0  0  0  0  0  0  0  0
   -1.1775    2.0023    0.5155 H   0  0  0  0  0  0  0  0  0  0  0  0
    2.9363   -0.3188    0.2066 H   0  0  0  0  0  0  0  0  0  0  0  0
    1.7806   -1.5127    0.9096 H   0  0  0  0  0  0  0  0  0  0  0  0
    1.7700   -1.1749   -0.8698 H   0  0  0  0  0  0  0  0  0  0  0  0
  1  2  1  0
  1  7  1  0
  1  4  1  0
  1  3  1  0
  2  8  1  0
  2  9  1  0
  2  5  1  0
  3  6  1  0
  3 10  1  0
  3 11  1  0
  4 13  1  0
  4  6  1  0
  4 12  1  0
  5 14  1  0
  5 15  1  0
  5 16  1  0
M  RAD  1   6   3
M  END
