
     RDKit          3D

 22 23  0  0  0  0  0  0  0  0999 V2000
    0.0435    0.5840   -0.6534 C   0  0  0  0  0  0  0  0  0  0  0  0
    0.1822   -0.5377    0.3996 C   0  0  0  0  0  0  0  0  0  0  0  0
   -1.3550    1.2121   -0.5546 C   0  0  0  0  0  0  0  0  0  0  0  0
   -0.8224   -1.6587    0.0922 C   0  0  0  0  0  0  0  0  0  0  0  0
    1.1400    1.6086   -0.4756 C   0  0  0  0  0  0  0  0  0  0  0  0
    1.6048   -1.0457    0.4405 C   0  0  0  0  0  0  0  0  0  0  0  0
   -2.4406    0.1603   -0.5240 C   0  0  0  0  0  0  0  0  0  0  0  0
   -2.2114   -1.1143   -0.1533 C   0  0  0  0  0  0  0  0  0  0  0  0
    2.3645    1.2166   -0.1011 C   0  0  0  0  0  0  0  0  0  0  0  0
    2.6224   -0.1939    0.2608 C   0  0  0  0  0  0  0  0  0  0  0  0
    0.1624    0.1432   -1.6697 H   0  0  0  0  0  0  0  0  0  0  0  0
   -0.0507   -0.1203    1.4061 H   0  0  0  0  0  0  0  0  0  0  0  0
   -1.4333    1.8219    0.3718 H   0  0  0  0  0  0  0  0  0  0  0  0
   -1.5239    1.8809   -1.4258 H   0  0  0  0  0  0  0  0  0  0  0  0
   -0.5018   -2.2187   -0.8132 H   0  0  0  0  0  0  0  0  0  0  0  0
   -0.8582   -2.3694    0.9457 H   0  0  0  0  0  0  0  0  0  0  0  0
   -3.4628    0.4730   -0.7139 H   0  0  0  0  0  0  0  0  0  0  0  0
   -3.0462   -1.8079   -0.1246 H   0  0  0  0  0  0  0  0  0  0  0  0
    0.9630    2.6475   -0.7265 H   0  0  0  0  0  0  0  0  0  0  0  0
    1.8090   -2.0790    0.6938 H   0  0  0  0  0  0  0  0  0  0  0  0
    3.6421   -0.5378    0.3761 H   0  0  0  0  0  0  0  0  0  0  0  0
    3.1725    1.9354   -0.0578 H   0  0  0  0  0  0  0  0  0  0  0  0
  1  3  1  0
  1  2  1  0
  1  5  1  0
  1 11  1  0
  2  4  1  0
  2  6  1  0
  2 12  1  0
  3  7  1  0
  3 13  1  0
  3 14  1  0
  4  8  1  0
  4 15  1  0
  4 16  1  0
  5  9  2  0
  5 19  1  0
  6 10  2  0
  6 20  1  0
  7  8  2  0
  7 17  1  0
  8 18  1  0
  9 10  1  0
  9 22  1  0
 10 21  1  0
M  END
