
     RDKit          3D

 19 19  0  0  0  0  0  0  0  0999 V2000
    3.4784   -0.0207    0.0370 C   0  0  0  0  0  0  0  0  0  0  0  0
   -0.3291    0.2421    0.2219 C   0  0  0  0  0  0  0  0  0  0  0  0
    2.0468   -0.3602    0.2821 C   0  0  0  0  0  0  0  0  0  0  0  0
    1.0881    0.5070    0.0078 C   0  0  0  0  0  0  0  0  0  0  0  0
   -1.3048    1.1942   -0.0849 C   0  0  0  0  0  0  0  0  0  0  0  0
   -0.8023   -0.9485    0.7346 C   0  0  0  0  0  0  0  0  0  0  0  0
   -2.6485    0.9525    0.1143 C   0  0  0  0  0  0  0  0  0  0  0  0
   -3.0812   -0.2544    0.6304 C   0  0  0  0  0  0  0  0  0  0  0  0
   -2.1418   -1.2054    0.9396 C   0  0  0  0  0  0  0  0  0  0  0  0
    3.5694    0.6556   -0.8600 H   0  0  0  0  0  0  0  0  0  0  0  0
    4.0257   -0.9388   -0.2500 H   0  0  0  0  0  0  0  0  0  0  0  0
    3.9575    0.4834    0.9032 H   0  0  0  0  0  0  0  0  0  0  0  0
    1.8546   -1.3408    0.6894 H   0  0  0  0  0  0  0  0  0  0  0  0
   -0.9666    2.1420   -0.4901 H   0  0  0  0  0  0  0  0  0  0  0  0
   -3.3511    1.7519   -0.1522 H   0  0  0  0  0  0  0  0  0  0  0  0
   -4.1346   -0.4498    0.7890 H   0  0  0  0  0  0  0  0  0  0  0  0
   -0.1149   -1.7406    0.9994 H   0  0  0  0  0  0  0  0  0  0  0  0
    1.3600    1.4708   -0.3988 H   0  0  0  0  0  0  0  0  0  0  0  0
   -2.5056   -2.1404    1.3416 H   0  0  0  0  0  0  0  0  0  0  0  0
  1  3  1  0
  1 10  1  0
  1 11  1  0
  1 12  1  0
  2  4  1  0
  2  5  2  0
  2  6  1  0
  3  4  2  3
  3 13  1  0
  4 18  1  0
  5  7  1  0
  5 14  1  0
  6  9  2  0
  6 17  1  0
  7  8  2  0
  7 15  1  0
  8  9  1  0
  8 16  1  0
  9 19  1  0
M  END
