
     RDKit          3D

 19 19  0  0  0  0  0  0  0  0999 V2000
    3.4998   -0.0106   -0.0419 C   0  0  0  0  0  0  0  0  0  0  0  0
   -0.3406    0.2285    0.3011 C   0  0  0  0  0  0  0  0  0  0  0  0
    2.0667   -0.3973    0.1378 C   0  0  0  0  0  0  0  0  0  0  0  0
    1.1033    0.5316    0.1421 C   0  0  0  0  0  0  0  0  0  0  0  0
   -1.2783    1.1965   -0.0993 C   0  0  0  0  0  0  0  0  0  0  0  0
   -0.8071   -0.9764    0.8674 C   0  0  0  0  0  0  0  0  0  0  0  0
   -2.6491    0.9588    0.0393 C   0  0  0  0  0  0  0  0  0  0  0  0
   -3.0995   -0.2435    0.5877 C   0  0  0  0  0  0  0  0  0  0  0  0
   -2.1797   -1.2080    1.0040 C   0  0  0  0  0  0  0  0  0  0  0  0
    3.6341    0.5085   -1.0144 H   0  0  0  0  0  0  0  0  0  0  0  0
    4.1384   -0.9186   -0.0296 H   0  0  0  0  0  0  0  0  0  0  0  0
    3.8170    0.6616    0.7832 H   0  0  0  0  0  0  0  0  0  0  0  0
    1.8359   -1.4487    0.2377 H   0  0  0  0  0  0  0  0  0  0  0  0
   -0.9493    2.1357   -0.5274 H   0  0  0  0  0  0  0  0  0  0  0  0
   -3.3626    1.7083   -0.2781 H   0  0  0  0  0  0  0  0  0  0  0  0
   -4.1610   -0.4253    0.6958 H   0  0  0  0  0  0  0  0  0  0  0  0
   -0.1241   -1.7327    1.2272 H   0  0  0  0  0  0  0  0  0  0  0  0
    1.3866    1.5664   -0.0184 H   0  0  0  0  0  0  0  0  0  0  0  0
   -2.5304   -2.1346    1.4401 H   0  0  0  0  0  0  0  0  0  0  0  0
  1  3  1  0
  1 10  1  0
  1 11  1  0
  1 12  1  0
  2  4  1  0
  2  5  2  0
  2  6  1  0
  3  4  2  3
  3 13  1  0
  4 18  1  0
  5  7  1  0
  5 14  1  0
  6  9  2  0
  6 17  1  0
  7  8  2  0
  7 15  1  0
  8  9  1  0
  8 16  1  0
  9 19  1  0
M  END
