
     RDKit          3D

 21 21  0  0  0  0  0  0  0  0999 V2000
   -0.0113   -0.2699    0.2890 C   0  0  0  0  0  0  0  0  0  0  0  0
    0.7163    1.0694    0.5514 C   0  0  0  0  0  0  0  0  0  0  0  0
   -2.5178   -0.5310    1.0204 C   0  0  0  0  0  0  0  0  0  0  0  0
   -1.4927   -0.0475    0.0282 C   0  0  0  0  0  0  0  0  0  0  0  0
    0.6400   -1.0312   -0.8459 C   0  0  0  0  0  0  0  0  0  0  0  0
    2.2115    0.8861    0.5478 C   0  0  0  0  0  0  0  0  0  0  0  0
    1.9581   -0.9418   -1.0542 C   0  0  0  0  0  0  0  0  0  0  0  0
    2.7841   -0.0181   -0.2539 C   0  0  0  0  0  0  0  0  0  0  0  0
   -1.9124    0.5809   -1.0832 C   0  0  0  0  0  0  0  0  0  0  0  0
    0.1148   -0.8947    1.2003 H   0  0  0  0  0  0  0  0  0  0  0  0
    0.4637    1.8109   -0.2367 H   0  0  0  0  0  0  0  0  0  0  0  0
    0.3974    1.4848    1.5316 H   0  0  0  0  0  0  0  0  0  0  0  0
   -2.0421   -1.0174    1.8971 H   0  0  0  0  0  0  0  0  0  0  0  0
   -3.1915   -1.2682    0.5345 H   0  0  0  0  0  0  0  0  0  0  0  0
   -3.1208    0.3274    1.3852 H   0  0  0  0  0  0  0  0  0  0  0  0
    0.0571   -1.7315   -1.4324 H   0  0  0  0  0  0  0  0  0  0  0  0
    2.8312    1.5518    1.1352 H   0  0  0  0  0  0  0  0  0  0  0  0
    2.4277   -1.5571   -1.8109 H   0  0  0  0  0  0  0  0  0  0  0  0
    3.8631   -0.0815   -0.3119 H   0  0  0  0  0  0  0  0  0  0  0  0
   -2.9711    0.7395   -1.2663 H   0  0  0  0  0  0  0  0  0  0  0  0
   -1.2052    0.9391   -1.8251 H   0  0  0  0  0  0  0  0  0  0  0  0
  1  4  1  0
  1  2  1  0
  1  5  1  0
  1 10  1  0
  2  6  1  0
  2 11  1  0
  2 12  1  0
  3  4  1  0
  3 13  1  0
  3 14  1  0
  3 15  1  0
  4  9  2  0
  5  7  2  0
  5 16  1  0
  6  8  2  0
  6 17  1  0
  7  8  1  0
  7 18  1  0
  8 19  1  0
  9 20  1  0
  9 21  1  0
M  END
