
     RDKit          3D

 21 21  0  0  0  0  0  0  0  0999 V2000
   -0.0443   -0.0712    0.5293 C   0  0  0  0  0  0  0  0  0  0  0  0
    0.9089    1.0374    0.6723 C   0  0  0  0  0  0  0  0  0  0  0  0
   -2.4435   -0.8107    0.2028 C   0  0  0  0  0  0  0  0  0  0  0  0
   -1.4066    0.2833    0.0310 C   0  0  0  0  0  0  0  0  0  0  0  0
    0.4939   -1.2367   -0.1876 C   0  0  0  0  0  0  0  0  0  0  0  0
    2.2183    0.7754    0.0707 C   0  0  0  0  0  0  0  0  0  0  0  0
    1.6848   -1.3935   -0.6975 C   0  0  0  0  0  0  0  0  0  0  0  0
    2.6276   -0.2949   -0.5573 C   0  0  0  0  0  0  0  0  0  0  0  0
   -1.7762    1.4093   -0.5204 C   0  0  0  0  0  0  0  0  0  0  0  0
   -0.2154   -0.4688    1.5919 H   0  0  0  0  0  0  0  0  0  0  0  0
    0.4665    1.9961    0.2475 H   0  0  0  0  0  0  0  0  0  0  0  0
    1.0779    1.3217    1.7598 H   0  0  0  0  0  0  0  0  0  0  0  0
   -2.2509   -1.3189    1.1711 H   0  0  0  0  0  0  0  0  0  0  0  0
   -2.2668   -1.5076   -0.6416 H   0  0  0  0  0  0  0  0  0  0  0  0
   -3.4376   -0.3416    0.2156 H   0  0  0  0  0  0  0  0  0  0  0  0
   -0.1969   -2.0872   -0.3104 H   0  0  0  0  0  0  0  0  0  0  0  0
    2.9624    1.5875    0.1567 H   0  0  0  0  0  0  0  0  0  0  0  0
    1.9811   -2.2901   -1.2059 H   0  0  0  0  0  0  0  0  0  0  0  0
    3.6326   -0.3827   -0.9682 H   0  0  0  0  0  0  0  0  0  0  0  0
   -2.8370    1.5166   -0.8397 H   0  0  0  0  0  0  0  0  0  0  0  0
   -1.1787    2.2766   -0.7201 H   0  0  0  0  0  0  0  0  0  0  0  0
  1  4  1  0
  1  2  1  0
  1  5  1  0
  1 10  1  0
  2  6  1  0
  2 11  1  0
  2 12  1  0
  3  4  1  0
  3 13  1  0
  3 14  1  0
  3 15  1  0
  4  9  2  0
  5  7  2  0
  5 16  1  0
  6  8  2  0
  6 17  1  0
  7  8  1  0
  7 18  1  0
  8 19  1  0
  9 20  1  0
  9 21  1  0
M  END
