
     RDKit          3D

 20 21  0  0  0  0  0  0  0  0999 V2000
   -2.0712    1.0076    0.4760 C   0  0  0  0  0  0  0  0  0  0  0  0
   -2.3180   -0.3572   -0.1753 C   0  0  0  0  0  0  0  0  0  0  0  0
    0.3424    0.6678    0.0030 C   0  0  0  0  0  0  0  0  0  0  0  0
    0.1315   -0.7381   -0.0354 C   0  0  0  0  0  0  0  0  0  0  0  0
   -0.6909    1.5171    0.1618 C   0  0  0  0  0  0  0  0  0  0  0  0
   -1.1146   -1.2496   -0.0381 C   0  0  0  0  0  0  0  0  0  0  0  0
    1.6520    1.1711   -0.0995 C   0  0  0  0  0  0  0  0  0  0  0  0
    1.2415   -1.5999   -0.0987 C   0  0  0  0  0  0  0  0  0  0  0  0
    2.7396    0.2992   -0.1868 C   0  0  0  0  0  0  0  0  0  0  0  0
    2.5359   -1.0809   -0.1746 C   0  0  0  0  0  0  0  0  0  0  0  0
   -2.1685    0.9116    1.5789 H   0  0  0  0  0  0  0  0  0  0  0  0
   -2.8305    1.7365    0.1207 H   0  0  0  0  0  0  0  0  0  0  0  0
   -2.5298   -0.2154   -1.2571 H   0  0  0  0  0  0  0  0  0  0  0  0
   -3.2009   -0.8427    0.2925 H   0  0  0  0  0  0  0  0  0  0  0  0
   -0.5248    2.5883    0.1934 H   0  0  0  0  0  0  0  0  0  0  0  0
   -1.2705   -2.3222   -0.0704 H   0  0  0  0  0  0  0  0  0  0  0  0
    1.8393    2.2389   -0.0885 H   0  0  0  0  0  0  0  0  0  0  0  0
    3.7447    0.6953   -0.2535 H   0  0  0  0  0  0  0  0  0  0  0  0
    1.1093   -2.6758   -0.1134 H   0  0  0  0  0  0  0  0  0  0  0  0
    3.3835   -1.7515   -0.2348 H   0  0  0  0  0  0  0  0  0  0  0  0
  1  5  1  0
  1  2  1  0
  1 11  1  0
  1 12  1  0
  2  6  1  0
  2 13  1  0
  2 14  1  0
  3  4  1  0
  3  5  2  0
  3  7  1  0
  4  6  2  0
  4  8  1  0
  5 15  1  0
  6 16  1  0
  7  9  2  0
  7 17  1  0
  8 10  2  0
  8 19  1  0
  9 10  1  0
  9 18  1  0
 10 20  1  0
M  END
