
     RDKit          3D

 32 32  0  0  0  0  0  0  0  0999 V2000
   -2.3094   -0.4452    0.4105 C   0  0  0  0  0  0  0  0  0  0  0  0
   -1.6669   -0.7927   -0.8868 C   0  0  0  0  0  0  0  0  0  0  0  0
   -0.1725   -0.7668   -0.9281 C   0  0  0  0  0  0  0  0  0  0  0  0
   -3.5626    0.3967    0.3301 C   0  0  0  0  0  0  0  0  0  0  0  0
    0.4370    0.5779   -0.6044 C   0  0  0  0  0  0  0  0  0  0  0  0
    4.1941    0.6815    0.2320 C   0  0  0  0  0  0  0  0  0  0  0  0
   -3.3543    1.7223   -0.3209 C   0  0  0  0  0  0  0  0  0  0  0  0
    4.7877   -0.3347    1.1891 C   0  0  0  0  0  0  0  0  0  0  0  0
   -2.6956   -1.8737    0.5406 C   0  0  0  0  0  0  0  0  0  0  0  0
   -2.1235   -2.1800   -0.6133 C   0  0  0  0  0  0  0  0  0  0  0  0
    2.7167    0.7692    0.3572 C   0  0  0  0  0  0  0  0  0  0  0  0
    1.9438    0.5058   -0.6705 C   0  0  0  0  0  0  0  0  0  0  0  0
   -1.6112   -0.1186    1.1994 H   0  0  0  0  0  0  0  0  0  0  0  0
   -2.1334   -0.3519   -1.7943 H   0  0  0  0  0  0  0  0  0  0  0  0
    0.3108   -1.5788   -0.3588 H   0  0  0  0  0  0  0  0  0  0  0  0
    0.1081   -0.9566   -2.0012 H   0  0  0  0  0  0  0  0  0  0  0  0
   -4.3281   -0.1759   -0.2395 H   0  0  0  0  0  0  0  0  0  0  0  0
   -3.9771    0.4889    1.3556 H   0  0  0  0  0  0  0  0  0  0  0  0
    4.6676    1.6637    0.4727 H   0  0  0  0  0  0  0  0  0  0  0  0
    4.4738    0.4815   -0.8252 H   0  0  0  0  0  0  0  0  0  0  0  0
    0.1213    1.3675   -1.2886 H   0  0  0  0  0  0  0  0  0  0  0  0
    0.1931    0.8134    0.4484 H   0  0  0  0  0  0  0  0  0  0  0  0
    5.5250   -0.9934    0.6690 H   0  0  0  0  0  0  0  0  0  0  0  0
    3.9625   -0.9469    1.5937 H   0  0  0  0  0  0  0  0  0  0  0  0
    5.2652    0.1764    2.0590 H   0  0  0  0  0  0  0  0  0  0  0  0
   -2.7198    1.5966   -1.2137 H   0  0  0  0  0  0  0  0  0  0  0  0
   -4.3556    2.0368   -0.7267 H   0  0  0  0  0  0  0  0  0  0  0  0
   -3.0565    2.5106    0.3710 H   0  0  0  0  0  0  0  0  0  0  0  0
    2.2993    1.0528    1.3073 H   0  0  0  0  0  0  0  0  0  0  0  0
    2.3632    0.2193   -1.6306 H   0  0  0  0  0  0  0  0  0  0  0  0
   -3.2452   -2.3899    1.3276 H   0  0  0  0  0  0  0  0  0  0  0  0
   -2.0575   -3.1558   -1.1196 H   0  0  0  0  0  0  0  0  0  0  0  0
  1  4  1  0
  1 13  1  0
  1  2  1  0
  1  9  1  0
  2 14  1  0
  2 10  1  0
  2  3  1  0
  3  5  1  0
  3 15  1  0
  3 16  1  0
  4 17  1  0
  4 18  1  0
  4  7  1  0
  5 12  1  0
  5 21  1  0
  5 22  1  0
  6 11  1  0
  6 19  1  0
  6 20  1  0
  6  8  1  0
  7 26  1  0
  7 27  1  0
  7 28  1  0
  8 23  1  0
  8 24  1  0
  8 25  1  0
  9 10  2  0
  9 31  1  0
 10 32  1  0
 11 29  1  0
 11 12  2  3
 12 30  1  0
M  END
