
     RDKit          3D

 15 15  0  0  0  0  0  0  0  0999 V2000
   -0.3562   -1.2268    0.0843 C   0  0  0  0  0  0  0  0  0  0  0  0
   -0.6531    1.1193    0.4222 C   0  0  0  0  0  0  0  0  0  0  0  0
    0.3472    0.0560    0.2261 C   0  0  0  0  0  0  0  0  0  0  0  0
   -1.8100   -0.8882    0.2023 C   0  0  0  0  0  0  0  0  0  0  0  0
   -1.9720    0.4201    0.3906 C   0  0  0  0  0  0  0  0  0  0  0  0
    2.9209    0.3919    0.1447 C   0  0  0  0  0  0  0  0  0  0  0  0
    1.6196    0.2511    0.1897 C   0  0  0  0  0  0  0  0  0  0  0  0
   -0.1698   -1.9095    0.9635 H   0  0  0  0  0  0  0  0  0  0  0  0
   -0.1169   -1.8038   -0.8117 H   0  0  0  0  0  0  0  0  0  0  0  0
   -0.4502    1.5400    1.4479 H   0  0  0  0  0  0  0  0  0  0  0  0
   -0.6018    1.9171   -0.3493 H   0  0  0  0  0  0  0  0  0  0  0  0
   -2.5832   -1.6633    0.1334 H   0  0  0  0  0  0  0  0  0  0  0  0
   -2.9311    0.9134    0.5056 H   0  0  0  0  0  0  0  0  0  0  0  0
    3.3308    0.5726   -0.8254 H   0  0  0  0  0  0  0  0  0  0  0  0
    3.4258    0.3100    1.0821 H   0  0  0  0  0  0  0  0  0  0  0  0
  1  3  1  0
  1  4  1  0
  1  8  1  0
  1  9  1  0
  2  3  1  0
  2  5  1  0
  2 10  1  0
  2 11  1  0
  3  7  2  0
  4  5  2  0
  4 12  1  0
  5 13  1  0
  6  7  2  0
  6 14  1  0
  6 15  1  0
M  END
