
     RDKit          3D

 32 32  0  0  0  0  0  0  0  0999 V2000
    0.5086    0.6961   -0.3216 C   0  0  0  0  0  0  0  0  0  0  0  0
   -0.3465   -0.2400   -1.2126 C   0  0  0  0  0  0  0  0  0  0  0  0
    0.8918    0.1399    0.9510 C   0  0  0  0  0  0  0  0  0  0  0  0
    3.6197   -0.1935    1.1613 C   0  0  0  0  0  0  0  0  0  0  0  0
   -3.8987    0.1452    0.3519 C   0  0  0  0  0  0  0  0  0  0  0  0
   -0.5242    0.3438   -2.6208 C   0  0  0  0  0  0  0  0  0  0  0  0
   -3.7243   -0.2763    1.8084 C   0  0  0  0  0  0  0  0  0  0  0  0
    4.2988   -1.3151    0.3850 C   0  0  0  0  0  0  0  0  0  0  0  0
    2.3216    0.1816    0.5202 C   0  0  0  0  0  0  0  0  0  0  0  0
    1.9538    0.7137   -0.7160 C   0  0  0  0  0  0  0  0  0  0  0  0
   -1.6926   -0.5197   -0.5795 C   0  0  0  0  0  0  0  0  0  0  0  0
   -2.5740    0.4522   -0.2888 C   0  0  0  0  0  0  0  0  0  0  0  0
    0.1786   -1.2163   -1.3242 H   0  0  0  0  0  0  0  0  0  0  0  0
    0.0996    1.7286   -0.2394 H   0  0  0  0  0  0  0  0  0  0  0  0
   -4.5350    1.0555    0.3179 H   0  0  0  0  0  0  0  0  0  0  0  0
   -4.4169   -0.6582   -0.2152 H   0  0  0  0  0  0  0  0  0  0  0  0
    3.4287   -0.5294    2.2025 H   0  0  0  0  0  0  0  0  0  0  0  0
    4.2831    0.6966    1.1901 H   0  0  0  0  0  0  0  0  0  0  0  0
    0.7007    0.8270    1.8046 H   0  0  0  0  0  0  0  0  0  0  0  0
    0.5556   -0.9047    1.1365 H   0  0  0  0  0  0  0  0  0  0  0  0
   -3.2065    0.5230    2.3808 H   0  0  0  0  0  0  0  0  0  0  0  0
   -3.1344   -1.2150    1.8750 H   0  0  0  0  0  0  0  0  0  0  0  0
   -4.7207   -0.4527    2.2654 H   0  0  0  0  0  0  0  0  0  0  0  0
   -1.1706   -0.3221   -3.2319 H   0  0  0  0  0  0  0  0  0  0  0  0
    0.4597    0.4263   -3.1288 H   0  0  0  0  0  0  0  0  0  0  0  0
   -0.9861    1.3531   -2.5785 H   0  0  0  0  0  0  0  0  0  0  0  0
    5.2525   -1.5876    0.8839 H   0  0  0  0  0  0  0  0  0  0  0  0
    3.6440   -2.2123    0.3532 H   0  0  0  0  0  0  0  0  0  0  0  0
    4.5216   -0.9865   -0.6528 H   0  0  0  0  0  0  0  0  0  0  0  0
   -2.3469    1.4855   -0.5335 H   0  0  0  0  0  0  0  0  0  0  0  0
   -1.9393   -1.5513   -0.3430 H   0  0  0  0  0  0  0  0  0  0  0  0
    2.4982    1.0241   -1.6012 H   0  0  0  0  0  0  0  0  0  0  0  0
  1  3  1  0
  1 10  1  0
  1 14  1  0
  1  2  1  0
  2 11  1  0
  2 13  1  0
  2  6  1  0
  3  9  1  0
  3 19  1  0
  3 20  1  0
  4  9  1  0
  4 17  1  0
  4 18  1  0
  4  8  1  0
  5 12  1  0
  5 15  1  0
  5 16  1  0
  5  7  1  0
  6 24  1  0
  6 25  1  0
  6 26  1  0
  7 21  1  0
  7 22  1  0
  7 23  1  0
  8 27  1  0
  8 28  1  0
  8 29  1  0
  9 10  2  0
 10 32  1  0
 11 12  2  3
 11 31  1  0
 12 30  1  0
M  END
