
     RDKit          3D

 20 21  0  0  0  0  0  0  0  0999 V2000
    2.3761   -0.7877   -0.7296 C   0  0  0  0  0  0  0  0  0  0  0  0
   -2.3761    0.7877    0.7296 C   0  0  0  0  0  0  0  0  0  0  0  0
   -0.0505   -0.7268   -0.1168 C   0  0  0  0  0  0  0  0  0  0  0  0
    0.0505    0.7268    0.1168 C   0  0  0  0  0  0  0  0  0  0  0  0
    1.0247   -1.4245   -0.5077 C   0  0  0  0  0  0  0  0  0  0  0  0
   -1.0247    1.4245    0.5077 C   0  0  0  0  0  0  0  0  0  0  0  0
    2.4171    0.6997   -0.4751 C   0  0  0  0  0  0  0  0  0  0  0  0
   -2.4171   -0.6997    0.4751 C   0  0  0  0  0  0  0  0  0  0  0  0
    1.3469    1.3957   -0.0858 C   0  0  0  0  0  0  0  0  0  0  0  0
   -1.3469   -1.3957    0.0858 C   0  0  0  0  0  0  0  0  0  0  0  0
    2.6861   -0.9746   -1.7790 H   0  0  0  0  0  0  0  0  0  0  0  0
    3.1123   -1.2804   -0.0607 H   0  0  0  0  0  0  0  0  0  0  0  0
   -3.1123    1.2804    0.0607 H   0  0  0  0  0  0  0  0  0  0  0  0
   -2.6861    0.9746    1.7790 H   0  0  0  0  0  0  0  0  0  0  0  0
    0.9410   -2.4918   -0.6769 H   0  0  0  0  0  0  0  0  0  0  0  0
    3.3570    1.2186   -0.6159 H   0  0  0  0  0  0  0  0  0  0  0  0
   -3.3570   -1.2186    0.6159 H   0  0  0  0  0  0  0  0  0  0  0  0
   -0.9410    2.4918    0.6769 H   0  0  0  0  0  0  0  0  0  0  0  0
   -1.4418   -2.4624   -0.0805 H   0  0  0  0  0  0  0  0  0  0  0  0
    1.4418    2.4624    0.0805 H   0  0  0  0  0  0  0  0  0  0  0  0
  1  5  1  0
  1  7  1  0
  1 11  1  0
  1 12  1  0
  2  6  1  0
  2  8  1  0
  2 13  1  0
  2 14  1  0
  3  4  1  0
  3  5  2  0
  3 10  1  0
  4  9  1  0
  4  6  2  0
  5 15  1  0
  6 18  1  0
  7  9  2  0
  7 16  1  0
  8 10  2  0
  8 17  1  0
  9 20  1  0
 10 19  1  0
M  END
