
     RDKit          3D

 20 20  0  0  0  0  0  0  0  0999 V2000
   -0.7240   -0.2355   -0.2076 C   0  0  0  0  0  0  0  0  0  0  0  0
    0.7121   -0.3846   -0.0295 C   0  0  0  0  0  0  0  0  0  0  0  0
   -0.9568    0.4641   -1.4957 C   0  0  0  0  0  0  0  0  0  0  0  0
   -1.3505    0.6139    0.8662 C   0  0  0  0  0  0  0  0  0  0  0  0
    1.7549    0.0306   -0.9479 C   0  0  0  0  0  0  0  0  0  0  0  0
   -0.0194    0.8500   -2.3233 C   0  0  0  0  0  0  0  0  0  0  0  0
    1.4024    0.6413   -2.0787 C   0  0  0  0  0  0  0  0  0  0  0  0
   -2.3225    0.1614    1.6449 C   0  0  0  0  0  0  0  0  0  0  0  0
    1.6767   -1.3917    2.1980 C   0  0  0  0  0  0  0  0  0  0  0  0
    1.1029   -0.9418    1.0844 C   0  0  0  0  0  0  0  0  0  0  0  0
   -1.2823   -1.1993   -0.1868 H   0  0  0  0  0  0  0  0  0  0  0  0
   -1.9956    0.6610   -1.7514 H   0  0  0  0  0  0  0  0  0  0  0  0
   -0.9657    1.6283    0.9791 H   0  0  0  0  0  0  0  0  0  0  0  0
    2.8063   -0.1142   -0.7973 H   0  0  0  0  0  0  0  0  0  0  0  0
   -0.3217    1.3492   -3.2261 H   0  0  0  0  0  0  0  0  0  0  0  0
    2.1716    0.9529   -2.7692 H   0  0  0  0  0  0  0  0  0  0  0  0
   -2.6961   -0.8401    1.5258 H   0  0  0  0  0  0  0  0  0  0  0  0
   -2.7206    0.8262    2.3987 H   0  0  0  0  0  0  0  0  0  0  0  0
    1.6629   -2.4350    2.2904 H   0  0  0  0  0  0  0  0  0  0  0  0
    2.0654   -0.6368    2.8261 H   0  0  0  0  0  0  0  0  0  0  0  0
  1  2  1  0
  1  3  1  0
  1  4  1  0
  1 11  1  0
  2  5  1  0
  2 10  2  0
  3  6  2  0
  3 12  1  0
  4  8  2  0
  4 13  1  0
  5  7  2  0
  5 14  1  0
  6  7  1  0
  6 15  1  0
  7 16  1  0
  8 17  1  0
  8 18  1  0
  9 10  2  0
  9 19  1  0
  9 20  1  0
M  END
