
     RDKit          3D

 20 20  0  0  0  0  0  0  0  0999 V2000
   -0.6534   -0.3620   -0.3652 C   0  0  0  0  0  0  0  0  0  0  0  0
    0.7811   -0.2064    0.0974 C   0  0  0  0  0  0  0  0  0  0  0  0
   -0.8654    0.1651   -1.7667 C   0  0  0  0  0  0  0  0  0  0  0  0
   -1.5755    0.3731    0.5753 C   0  0  0  0  0  0  0  0  0  0  0  0
    1.7045    0.6888   -0.6227 C   0  0  0  0  0  0  0  0  0  0  0  0
    0.0395    0.9229   -2.3971 C   0  0  0  0  0  0  0  0  0  0  0  0
    1.3474    1.2243   -1.7904 C   0  0  0  0  0  0  0  0  0  0  0  0
   -2.2350   -0.2585    1.5513 C   0  0  0  0  0  0  0  0  0  0  0  0
    1.5943   -1.4204    2.2611 C   0  0  0  0  0  0  0  0  0  0  0  0
    1.1908   -0.8146    1.1811 C   0  0  0  0  0  0  0  0  0  0  0  0
   -0.9061   -1.4462   -0.3837 H   0  0  0  0  0  0  0  0  0  0  0  0
   -1.8119   -0.0327   -2.2551 H   0  0  0  0  0  0  0  0  0  0  0  0
   -1.6602    1.4541    0.4991 H   0  0  0  0  0  0  0  0  0  0  0  0
    2.6875    0.9008   -0.2178 H   0  0  0  0  0  0  0  0  0  0  0  0
   -0.1844    1.3130   -3.3818 H   0  0  0  0  0  0  0  0  0  0  0  0
    2.0391    1.8681   -2.3185 H   0  0  0  0  0  0  0  0  0  0  0  0
   -2.1481   -1.3328    1.6832 H   0  0  0  0  0  0  0  0  0  0  0  0
   -2.8667    0.3040    2.2310 H   0  0  0  0  0  0  0  0  0  0  0  0
    0.8711   -1.8453    2.9436 H   0  0  0  0  0  0  0  0  0  0  0  0
    2.6514   -1.4953    2.4759 H   0  0  0  0  0  0  0  0  0  0  0  0
  1  2  1  0
  1  3  1  0
  1  4  1  0
  1 11  1  0
  2  5  1  0
  2 10  2  0
  3  6  2  0
  3 12  1  0
  4  8  2  0
  4 13  1  0
  5  7  2  0
  5 14  1  0
  6  7  1  0
  6 15  1  0
  7 16  1  0
  8 17  1  0
  8 18  1  0
  9 10  2  0
  9 19  1  0
  9 20  1  0
M  END
