
     RDKit          3D

 34 34  0  0  0  0  0  0  0  0999 V2000
    0.5428   -0.7574   -0.4316 C   0  0  0  0  0  0  0  0  0  0  0  0
    1.6482    0.1240    0.0425 C   0  0  0  0  0  0  0  0  0  0  0  0
   -0.8147   -0.5027    0.1692 C   0  0  0  0  0  0  0  0  0  0  0  0
    2.1058   -0.9742    0.9954 C   0  0  0  0  0  0  0  0  0  0  0  0
    1.2284   -1.9324    0.2282 C   0  0  0  0  0  0  0  0  0  0  0  0
   -1.3035    0.9158   -0.1148 C   0  0  0  0  0  0  0  0  0  0  0  0
    2.6975    0.3221   -1.0381 C   0  0  0  0  0  0  0  0  0  0  0  0
   -2.6542    1.0226    0.5382 C   0  0  0  0  0  0  0  0  0  0  0  0
    3.7923    1.2228   -0.5019 C   0  0  0  0  0  0  0  0  0  0  0  0
   -3.3070    2.3487    0.3732 C   0  0  0  0  0  0  0  0  0  0  0  0
   -1.7957   -1.4319   -0.4437 C   0  0  0  0  0  0  0  0  0  0  0  0
   -2.4401   -2.3057    0.3479 C   0  0  0  0  0  0  0  0  0  0  0  0
    1.4100    1.0099    0.6267 H   0  0  0  0  0  0  0  0  0  0  0  0
    0.5331   -0.8761   -1.5419 H   0  0  0  0  0  0  0  0  0  0  0  0
   -0.7810   -0.6157    1.2507 H   0  0  0  0  0  0  0  0  0  0  0  0
    3.1651   -0.6328   -1.3339 H   0  0  0  0  0  0  0  0  0  0  0  0
    2.2591    0.7763   -1.9464 H   0  0  0  0  0  0  0  0  0  0  0  0
    1.7389   -0.8255    2.0482 H   0  0  0  0  0  0  0  0  0  0  0  0
    3.1826   -1.1737    0.9367 H   0  0  0  0  0  0  0  0  0  0  0  0
   -2.5972    0.7582    1.6033 H   0  0  0  0  0  0  0  0  0  0  0  0
   -3.2938    0.2515    0.0462 H   0  0  0  0  0  0  0  0  0  0  0  0
    0.5901   -2.5244    0.9108 H   0  0  0  0  0  0  0  0  0  0  0  0
   -0.6207    1.6546    0.3342 H   0  0  0  0  0  0  0  0  0  0  0  0
    1.8482   -2.5601   -0.4588 H   0  0  0  0  0  0  0  0  0  0  0  0
   -1.3926    1.0914   -1.1932 H   0  0  0  0  0  0  0  0  0  0  0  0
    3.3914    1.8737    0.3108 H   0  0  0  0  0  0  0  0  0  0  0  0
    4.1880    1.8139   -1.3515 H   0  0  0  0  0  0  0  0  0  0  0  0
    4.5650    0.5673   -0.0364 H   0  0  0  0  0  0  0  0  0  0  0  0
   -3.9639    2.5187    1.2586 H   0  0  0  0  0  0  0  0  0  0  0  0
   -2.6000    3.1965    0.2843 H   0  0  0  0  0  0  0  0  0  0  0  0
   -3.9799    2.3295   -0.4979 H   0  0  0  0  0  0  0  0  0  0  0  0
   -2.0001   -1.4211   -1.4966 H   0  0  0  0  0  0  0  0  0  0  0  0
   -2.1836   -2.2618    1.4100 H   0  0  0  0  0  0  0  0  0  0  0  0
   -3.1583   -3.0022   -0.0262 H   0  0  0  0  0  0  0  0  0  0  0  0
  1  2  1  0
  1 14  1  0
  1  5  1  0
  1  3  1  0
  2  7  1  0
  2 13  1  0
  2  4  1  0
  3  6  1  0
  3 15  1  0
  3 11  1  0
  4  5  1  0
  4 18  1  0
  4 19  1  0
  5 22  1  0
  5 24  1  0
  6  8  1  0
  6 23  1  0
  6 25  1  0
  7 16  1  0
  7 17  1  0
  7  9  1  0
  8 20  1  0
  8 21  1  0
  8 10  1  0
  9 26  1  0
  9 27  1  0
  9 28  1  0
 10 29  1  0
 10 30  1  0
 10 31  1  0
 11 32  1  0
 11 12  2  0
 12 33  1  0
 12 34  1  0
M  END
