
     RDKit          3D

 34 34  0  0  0  0  0  0  0  0999 V2000
    0.5400   -0.8913   -0.4005 C   0  0  0  0  0  0  0  0  0  0  0  0
    1.6811   -0.0494    0.1932 C   0  0  0  0  0  0  0  0  0  0  0  0
   -0.8491   -0.6020    0.2158 C   0  0  0  0  0  0  0  0  0  0  0  0
    2.3553   -1.3250    0.6996 C   0  0  0  0  0  0  0  0  0  0  0  0
    1.2109   -2.1584    0.1393 C   0  0  0  0  0  0  0  0  0  0  0  0
   -1.3702    0.7725   -0.2569 C   0  0  0  0  0  0  0  0  0  0  0  0
    2.4885    0.7104   -0.8737 C   0  0  0  0  0  0  0  0  0  0  0  0
   -2.6570    1.1861    0.4734 C   0  0  0  0  0  0  0  0  0  0  0  0
    3.6534    1.4742   -0.2501 C   0  0  0  0  0  0  0  0  0  0  0  0
   -3.1200    2.5713    0.0316 C   0  0  0  0  0  0  0  0  0  0  0  0
   -1.8139   -1.6903   -0.2020 C   0  0  0  0  0  0  0  0  0  0  0  0
   -2.4467   -2.4572    0.6910 C   0  0  0  0  0  0  0  0  0  0  0  0
    1.3590    0.6071    1.0331 H   0  0  0  0  0  0  0  0  0  0  0  0
    0.5194   -0.8865   -1.5150 H   0  0  0  0  0  0  0  0  0  0  0  0
   -0.7507   -0.5799    1.3260 H   0  0  0  0  0  0  0  0  0  0  0  0
    2.8783    0.0102   -1.6452 H   0  0  0  0  0  0  0  0  0  0  0  0
    1.8180    1.4386   -1.3792 H   0  0  0  0  0  0  0  0  0  0  0  0
    2.4028   -1.3651    1.8097 H   0  0  0  0  0  0  0  0  0  0  0  0
    3.3243   -1.5580    0.2054 H   0  0  0  0  0  0  0  0  0  0  0  0
   -2.4773    1.2006    1.5705 H   0  0  0  0  0  0  0  0  0  0  0  0
   -3.4678    0.4569    0.2595 H   0  0  0  0  0  0  0  0  0  0  0  0
    0.6381   -2.6726    0.9423 H   0  0  0  0  0  0  0  0  0  0  0  0
   -0.5968    1.5471   -0.0634 H   0  0  0  0  0  0  0  0  0  0  0  0
    1.5431   -2.8400   -0.6740 H   0  0  0  0  0  0  0  0  0  0  0  0
   -1.5541    0.7485   -1.3543 H   0  0  0  0  0  0  0  0  0  0  0  0
    3.2785    2.2051    0.4977 H   0  0  0  0  0  0  0  0  0  0  0  0
    4.2014    2.0266   -1.0422 H   0  0  0  0  0  0  0  0  0  0  0  0
    4.3581    0.7730    0.2446 H   0  0  0  0  0  0  0  0  0  0  0  0
   -4.0521    2.8415    0.5712 H   0  0  0  0  0  0  0  0  0  0  0  0
   -2.3430    3.3306    0.2636 H   0  0  0  0  0  0  0  0  0  0  0  0
   -3.3264    2.5788   -1.0599 H   0  0  0  0  0  0  0  0  0  0  0  0
   -2.0028   -1.8502   -1.2599 H   0  0  0  0  0  0  0  0  0  0  0  0
   -2.2881   -2.3271    1.7569 H   0  0  0  0  0  0  0  0  0  0  0  0
   -3.1340   -3.2262    0.3539 H   0  0  0  0  0  0  0  0  0  0  0  0
  1  2  1  0
  1 14  1  0
  1  5  1  0
  1  3  1  0
  2  7  1  0
  2 13  1  0
  2  4  1  0
  3  6  1  0
  3 15  1  0
  3 11  1  0
  4  5  1  0
  4 18  1  0
  4 19  1  0
  5 22  1  0
  5 24  1  0
  6  8  1  0
  6 23  1  0
  6 25  1  0
  7 16  1  0
  7 17  1  0
  7  9  1  0
  8 20  1  0
  8 21  1  0
  8 10  1  0
  9 26  1  0
  9 27  1  0
  9 28  1  0
 10 29  1  0
 10 30  1  0
 10 31  1  0
 11 32  1  0
 11 12  2  0
 12 33  1  0
 12 34  1  0
M  END
