
     RDKit          3D

 16 16  0  0  0  0  0  0  0  0999 V2000
    1.3208   -0.2365    1.1285 C   0  0  0  0  0  0  0  0  0  0  0  0
   -1.2347    0.6446    0.5858 C   0  0  0  0  0  0  0  0  0  0  0  0
    2.1362   -0.2789   -0.0466 C   0  0  0  0  0  0  0  0  0  0  0  0
   -2.2043   -0.2690   -0.1538 C   0  0  0  0  0  0  0  0  0  0  0  0
    0.1814    0.2572    0.2985 C   0  0  0  0  0  0  0  0  0  0  0  0
    0.9778    0.2188   -0.8454 C   0  0  0  0  0  0  0  0  0  0  0  0
   -1.4189    0.5697    1.6785 H   0  0  0  0  0  0  0  0  0  0  0  0
   -1.3965    1.6965    0.2688 H   0  0  0  0  0  0  0  0  0  0  0  0
    1.1135   -1.2401    1.5611 H   0  0  0  0  0  0  0  0  0  0  0  0
    1.6522    0.5227    1.8710 H   0  0  0  0  0  0  0  0  0  0  0  0
    2.9740    0.4525   -0.0316 H   0  0  0  0  0  0  0  0  0  0  0  0
    2.4322   -1.3091   -0.3439 H   0  0  0  0  0  0  0  0  0  0  0  0
   -2.0517   -0.1865   -1.2513 H   0  0  0  0  0  0  0  0  0  0  0  0
   -2.0539   -1.3244    0.1596 H   0  0  0  0  0  0  0  0  0  0  0  0
   -3.2478    0.0275    0.0828 H   0  0  0  0  0  0  0  0  0  0  0  0
    0.8197    0.4550   -1.8921 H   0  0  0  0  0  0  0  0  0  0  0  0
  1  5  1  0
  1  3  1  0
  1  9  1  0
  1 10  1  0
  2  5  1  0
  2  7  1  0
  2  8  1  0
  2  4  1  0
  3  6  1  0
  3 11  1  0
  3 12  1  0
  4 13  1  0
  4 14  1  0
  4 15  1  0
  5  6  2  0
  6 16  1  0
M  END
