
     RDKit          3D

 32 32  0  0  0  0  0  0  0  0999 V2000
   -2.1467   -0.5581   -1.0801 C   0  0  0  0  0  0  0  0  0  0  0  0
   -0.8165   -1.9628   -0.1115 C   0  0  0  0  0  0  0  0  0  0  0  0
   -1.4898   -1.8796   -1.4819 C   0  0  0  0  0  0  0  0  0  0  0  0
   -1.4787   -0.6443    0.2933 C   0  0  0  0  0  0  0  0  0  0  0  0
   -1.6805    0.6343   -1.9343 C   0  0  0  0  0  0  0  0  0  0  0  0
    0.7177   -1.8959   -0.1840 C   0  0  0  0  0  0  0  0  0  0  0  0
    3.0975    1.3335    0.9324 C   0  0  0  0  0  0  0  0  0  0  0  0
   -2.2833    1.9457   -1.4379 C   0  0  0  0  0  0  0  0  0  0  0  0
    1.9073    2.0994    0.3595 C   0  0  0  0  0  0  0  0  0  0  0  0
    2.6623    0.3026    1.9307 C   0  0  0  0  0  0  0  0  0  0  0  0
    1.3045   -1.8024    1.1922 C   0  0  0  0  0  0  0  0  0  0  0  0
    1.9860   -0.7523    1.5627 C   0  0  0  0  0  0  0  0  0  0  0  0
   -3.2551   -0.6450   -1.0228 H   0  0  0  0  0  0  0  0  0  0  0  0
   -1.1863   -2.8270    0.4852 H   0  0  0  0  0  0  0  0  0  0  0  0
   -2.0045    0.4709   -2.9848 H   0  0  0  0  0  0  0  0  0  0  0  0
   -0.5713    0.7145   -1.9268 H   0  0  0  0  0  0  0  0  0  0  0  0
   -0.7774   -1.7915   -2.3330 H   0  0  0  0  0  0  0  0  0  0  0  0
   -2.2379   -2.6892   -1.6281 H   0  0  0  0  0  0  0  0  0  0  0  0
   -2.2210   -0.7847    1.1090 H   0  0  0  0  0  0  0  0  0  0  0  0
   -0.7593    0.1773    0.5020 H   0  0  0  0  0  0  0  0  0  0  0  0
    3.6622    0.8461    0.1080 H   0  0  0  0  0  0  0  0  0  0  0  0
    3.7768    2.0550    1.4350 H   0  0  0  0  0  0  0  0  0  0  0  0
    1.0974   -2.8225   -0.6645 H   0  0  0  0  0  0  0  0  0  0  0  0
    1.0397   -1.0346   -0.8126 H   0  0  0  0  0  0  0  0  0  0  0  0
   -3.3926    1.8934   -1.4617 H   0  0  0  0  0  0  0  0  0  0  0  0
   -1.9528    2.7776   -2.0947 H   0  0  0  0  0  0  0  0  0  0  0  0
   -1.9487    2.1610   -0.4013 H   0  0  0  0  0  0  0  0  0  0  0  0
    1.3137    2.5610    1.1774 H   0  0  0  0  0  0  0  0  0  0  0  0
    1.2565    1.4206   -0.2291 H   0  0  0  0  0  0  0  0  0  0  0  0
    2.2727    2.9037   -0.3130 H   0  0  0  0  0  0  0  0  0  0  0  0
    2.9687    0.3966    2.9643 H   0  0  0  0  0  0  0  0  0  0  0  0
    1.1394   -2.6033    1.9011 H   0  0  0  0  0  0  0  0  0  0  0  0
  1  5  1  0
  1 13  1  0
  1  4  1  0
  1  3  1  0
  2  3  1  0
  2  4  1  0
  2 14  1  0
  2  6  1  0
  3 17  1  0
  3 18  1  0
  4 19  1  0
  4 20  1  0
  5 15  1  0
  5 16  1  0
  5  8  1  0
  6 11  1  0
  6 23  1  0
  6 24  1  0
  7 10  1  0
  7 21  1  0
  7 22  1  0
  7  9  1  0
  8 25  1  0
  8 26  1  0
  8 27  1  0
  9 28  1  0
  9 29  1  0
  9 30  1  0
 10 31  1  0
 10 12  2  0
 11 12  2  0
 11 32  1  0
M  END
