
     RDKit          3D

 21 21  0  0  0  0  0  0  0  0999 V2000
   -1.3931   -0.1837   -0.0738 C   0  0  0  0  0  0  0  0  0  0  0  0
   -1.9771    0.4540    1.1924 C   0  0  0  0  0  0  0  0  0  0  0  0
   -1.8576    0.5608   -1.3311 C   0  0  0  0  0  0  0  0  0  0  0  0
    0.1212   -0.2484   -0.0048 C   0  0  0  0  0  0  0  0  0  0  0  0
    0.8967    0.9249    0.0816 C   0  0  0  0  0  0  0  0  0  0  0  0
    0.7740   -1.4947   -0.0266 C   0  0  0  0  0  0  0  0  0  0  0  0
    2.2914    0.8485    0.1444 C   0  0  0  0  0  0  0  0  0  0  0  0
    2.1691   -1.5650    0.0365 C   0  0  0  0  0  0  0  0  0  0  0  0
    2.9269   -0.3949    0.1219 C   0  0  0  0  0  0  0  0  0  0  0  0
   -1.8049   -1.2158   -0.1370 H   0  0  0  0  0  0  0  0  0  0  0  0
   -3.0867    0.4062    1.1647 H   0  0  0  0  0  0  0  0  0  0  0  0
   -1.6724    1.5181    1.2829 H   0  0  0  0  0  0  0  0  0  0  0  0
   -1.6287   -0.0977    2.0917 H   0  0  0  0  0  0  0  0  0  0  0  0
   -1.5499    1.6276   -1.3024 H   0  0  0  0  0  0  0  0  0  0  0  0
   -2.9647    0.5153   -1.4123 H   0  0  0  0  0  0  0  0  0  0  0  0
   -1.4237    0.0855   -2.2368 H   0  0  0  0  0  0  0  0  0  0  0  0
    0.4248    1.8986    0.1005 H   0  0  0  0  0  0  0  0  0  0  0  0
    0.2052   -2.4138   -0.0925 H   0  0  0  0  0  0  0  0  0  0  0  0
    2.8797    1.7545    0.2107 H   0  0  0  0  0  0  0  0  0  0  0  0
    2.6629   -2.5280    0.0191 H   0  0  0  0  0  0  0  0  0  0  0  0
    4.0067   -0.4518    0.1707 H   0  0  0  0  0  0  0  0  0  0  0  0
  1  2  1  0
  1  4  1  0
  1  3  1  0
  1 10  1  0
  2 11  1  0
  2 12  1  0
  2 13  1  0
  3 14  1  0
  3 15  1  0
  3 16  1  0
  4  5  2  0
  4  6  1  0
  5  7  1  0
  5 17  1  0
  6  8  2  0
  6 18  1  0
  7  9  2  0
  7 19  1  0
  8  9  1  0
  8 20  1  0
  9 21  1  0
M  END
