
     RDKit          3D

 21 21  0  0  0  0  0  0  0  0999 V2000
   -1.3818   -0.2867   -0.0549 C   0  0  0  0  0  0  0  0  0  0  0  0
   -1.9868    0.3793    1.1403 C   0  0  0  0  0  0  0  0  0  0  0  0
   -1.7484    0.5569   -1.2821 C   0  0  0  0  0  0  0  0  0  0  0  0
    0.0909   -0.3067    0.0022 C   0  0  0  0  0  0  0  0  0  0  0  0
    0.7967    0.8919    0.1093 C   0  0  0  0  0  0  0  0  0  0  0  0
    0.7993   -1.5034   -0.0486 C   0  0  0  0  0  0  0  0  0  0  0  0
    2.1697    0.9158    0.1653 C   0  0  0  0  0  0  0  0  0  0  0  0
    2.1954   -1.5042    0.0067 C   0  0  0  0  0  0  0  0  0  0  0  0
    2.8623   -0.2950    0.1129 C   0  0  0  0  0  0  0  0  0  0  0  0
   -1.8167   -1.3023   -0.1390 H   0  0  0  0  0  0  0  0  0  0  0  0
   -3.1011    0.2696    1.0564 H   0  0  0  0  0  0  0  0  0  0  0  0
   -1.7982    1.4906    1.1045 H   0  0  0  0  0  0  0  0  0  0  0  0
   -1.6936   -0.0721    2.0982 H   0  0  0  0  0  0  0  0  0  0  0  0
   -0.9977    1.3691   -1.3510 H   0  0  0  0  0  0  0  0  0  0  0  0
   -2.7329    1.0238   -1.1528 H   0  0  0  0  0  0  0  0  0  0  0  0
   -1.6784   -0.1243   -2.1599 H   0  0  0  0  0  0  0  0  0  0  0  0
    0.2924    1.8548    0.1528 H   0  0  0  0  0  0  0  0  0  0  0  0
    0.2624   -2.4437   -0.1319 H   0  0  0  0  0  0  0  0  0  0  0  0
    2.7573    1.8225    0.2484 H   0  0  0  0  0  0  0  0  0  0  0  0
    2.7654   -2.4347   -0.0321 H   0  0  0  0  0  0  0  0  0  0  0  0
    3.9438   -0.3013    0.1553 H   0  0  0  0  0  0  0  0  0  0  0  0
  1  2  1  0
  1  4  1  0
  1  3  1  0
  1 10  1  0
  2 11  1  0
  2 12  1  0
  2 13  1  0
  3 14  1  0
  3 15  1  0
  3 16  1  0
  4  5  2  0
  4  6  1  0
  5  7  1  0
  5 17  1  0
  6  8  2  0
  6 18  1  0
  7  9  2  0
  7 19  1  0
  8  9  1  0
  8 20  1  0
  9 21  1  0
M  END
