
     RDKit          3D

 20 21  0  0  0  0  0  0  0  0999 V2000
    0.2226   -0.3159    0.5645 C   0  0  0  0  0  0  0  0  0  0  0  0
    1.8522    1.2069   -0.0348 C   0  0  0  0  0  0  0  0  0  0  0  0
    1.4679   -0.2767   -0.2240 C   0  0  0  0  0  0  0  0  0  0  0  0
   -0.4682    0.9139    0.1187 C   0  0  0  0  0  0  0  0  0  0  0  0
    0.4736    1.7926   -0.2201 C   0  0  0  0  0  0  0  0  0  0  0  0
   -0.6264   -1.4572    0.5953 C   0  0  0  0  0  0  0  0  0  0  0  0
   -1.9072    1.0484   -0.0333 C   0  0  0  0  0  0  0  0  0  0  0  0
   -1.9446   -1.3647    0.3887 C   0  0  0  0  0  0  0  0  0  0  0  0
   -2.6053   -0.0998    0.0903 C   0  0  0  0  0  0  0  0  0  0  0  0
    2.1265   -1.1788   -0.9122 C   0  0  0  0  0  0  0  0  0  0  0  0
    0.5372   -0.0558    1.6669 H   0  0  0  0  0  0  0  0  0  0  0  0
    2.4503    1.5335   -0.9050 H   0  0  0  0  0  0  0  0  0  0  0  0
    2.2739    1.3879    0.9452 H   0  0  0  0  0  0  0  0  0  0  0  0
    0.3080    2.8099   -0.5871 H   0  0  0  0  0  0  0  0  0  0  0  0
   -0.2595   -2.4551    0.7853 H   0  0  0  0  0  0  0  0  0  0  0  0
   -3.6926   -0.0436   -0.0432 H   0  0  0  0  0  0  0  0  0  0  0  0
   -2.4020    1.9892   -0.2309 H   0  0  0  0  0  0  0  0  0  0  0  0
   -2.5766   -2.2437    0.4374 H   0  0  0  0  0  0  0  0  0  0  0  0
    3.0481   -1.0111   -1.4549 H   0  0  0  0  0  0  0  0  0  0  0  0
    1.7222   -2.1799   -0.9466 H   0  0  0  0  0  0  0  0  0  0  0  0
  1  3  1  0
  1  4  1  0
  1  6  1  0
  1 11  1  0
  2  3  1  0
  2  5  1  0
  2 12  1  0
  2 13  1  0
  3 10  2  0
  4  5  2  0
  4  7  1  0
  5 14  1  0
  6  8  2  0
  6 15  1  0
  7  9  2  0
  7 17  1  0
  8  9  1  0
  8 18  1  0
  9 16  1  0
 10 19  1  0
 10 20  1  0
M  END
