
     RDKit          3D

 17 17  0  0  0  0  0  0  0  0999 V2000
   -0.1999    0.3270   -0.3516 C   0  0  0  0  0  0  0  0  0  0  0  0
    1.0567    1.0703    0.1356 C   0  0  0  0  0  0  0  0  0  0  0  0
    0.1639   -1.1668   -0.2969 C   0  0  0  0  0  0  0  0  0  0  0  0
    2.1243    0.0373    0.0899 C   0  0  0  0  0  0  0  0  0  0  0  0
   -1.4292    0.6521    0.4656 C   0  0  0  0  0  0  0  0  0  0  0  0
    1.6418   -1.1713   -0.1424 C   0  0  0  0  0  0  0  0  0  0  0  0
   -2.6331    0.1878    0.1184 C   0  0  0  0  0  0  0  0  0  0  0  0
   -0.3862    0.6143   -1.4117 H   0  0  0  0  0  0  0  0  0  0  0  0
    0.9612    1.4361    1.1809 H   0  0  0  0  0  0  0  0  0  0  0  0
    1.3082    1.9173   -0.5383 H   0  0  0  0  0  0  0  0  0  0  0  0
   -0.2919   -1.6782    0.5793 H   0  0  0  0  0  0  0  0  0  0  0  0
   -0.1305   -1.6857   -1.2343 H   0  0  0  0  0  0  0  0  0  0  0  0
    3.1745    0.2369    0.2761 H   0  0  0  0  0  0  0  0  0  0  0  0
   -1.3530    1.2929    1.3394 H   0  0  0  0  0  0  0  0  0  0  0  0
    2.2551   -2.0662   -0.1667 H   0  0  0  0  0  0  0  0  0  0  0  0
   -3.5055    0.4417    0.7117 H   0  0  0  0  0  0  0  0  0  0  0  0
   -2.7563   -0.4454   -0.7551 H   0  0  0  0  0  0  0  0  0  0  0  0
  1  2  1  0
  1  3  1  0
  1  5  1  0
  1  8  1  0
  2  4  1  0
  2  9  1  0
  2 10  1  0
  3  6  1  0
  3 11  1  0
  3 12  1  0
  4  6  2  0
  4 13  1  0
  5  7  2  0
  5 14  1  0
  6 15  1  0
  7 16  1  0
  7 17  1  0
M  END
