
     RDKit          3D

 10 10  0  0  0  0  0  0  0  0999 V2000
   -1.2362   -0.5449   -0.0581 C   0  0  0  0  0  0  0  0  0  0  0  0
    1.5084   -0.0346    0.0679 C   0  0  0  0  0  0  0  0  0  0  0  0
    0.0240    0.0607    0.0013 C   0  0  0  0  0  0  0  0  0  0  0  0
   -1.1904    0.8539   -0.0501 C   0  0  0  0  0  0  0  0  0  0  0  0
   -1.5680   -0.9927    0.9011 H   0  0  0  0  0  0  0  0  0  0  0  0
   -1.4801   -0.9845   -1.0470 H   0  0  0  0  0  0  0  0  0  0  0  0
    1.8693    0.4600    0.9931 H   0  0  0  0  0  0  0  0  0  0  0  0
    1.8113   -1.1019    0.0771 H   0  0  0  0  0  0  0  0  0  0  0  0
    1.9510    0.4676   -0.8167 H   0  0  0  0  0  0  0  0  0  0  0  0
   -1.6892    1.8164   -0.0686 H   0  0  0  0  0  0  0  0  0  0  0  0
  1  3  1  0
  1  4  1  0
  1  5  1  0
  1  6  1  0
  2  3  1  0
  2  7  1  0
  2  8  1  0
  2  9  1  0
  3  4  2  0
  4 10  1  0
M  END
