
     RDKit          3D

 10 10  0  0  0  0  0  0  0  0999 V2000
   -1.3257   -0.5892   -0.0785 C   0  0  0  0  0  0  0  0  0  0  0  0
    1.4937    0.0372    0.0560 C   0  0  0  0  0  0  0  0  0  0  0  0
   -0.0111    0.1245   -0.0036 C   0  0  0  0  0  0  0  0  0  0  0  0
   -1.1277    0.8344   -0.0293 C   0  0  0  0  0  0  0  0  0  0  0  0
   -1.5665   -1.1971    0.8141 H   0  0  0  0  0  0  0  0  0  0  0  0
   -1.5538   -1.1352   -1.0379 H   0  0  0  0  0  0  0  0  0  0  0  0
    1.8193    0.5918    0.9712 H   0  0  0  0  0  0  0  0  0  0  0  0
    1.8023   -0.9990    0.1691 H   0  0  0  0  0  0  0  0  0  0  0  0
    1.9616    0.4563   -0.8467 H   0  0  0  0  0  0  0  0  0  0  0  0
   -1.4922    1.8763   -0.0144 H   0  0  0  0  0  0  0  0  0  0  0  0
  1  3  1  0
  1  4  1  0
  1  5  1  0
  1  6  1  0
  2  3  1  0
  2  7  1  0
  2  8  1  0
  2  9  1  0
  3  4  2  0
  4 10  1  0
M  END
