
     RDKit          3D

 20 21  0  0  0  0  0  0  0  0999 V2000
    1.3671    1.1300   -0.0727 C   0  0  0  0  0  0  0  0  0  0  0  0
   -1.5953   -1.3135    0.0976 C   0  0  0  0  0  0  0  0  0  0  0  0
   -0.0846    0.7946   -0.0110 C   0  0  0  0  0  0  0  0  0  0  0  0
   -0.2768   -0.6455    0.0325 C   0  0  0  0  0  0  0  0  0  0  0  0
    1.9744   -0.2260   -0.0605 C   0  0  0  0  0  0  0  0  0  0  0  0
   -2.6525   -0.2816    0.1102 C   0  0  0  0  0  0  0  0  0  0  0  0
    0.9288   -1.2414    0.0034 C   0  0  0  0  0  0  0  0  0  0  0  0
   -1.1118    1.6156    0.0058 C   0  0  0  0  0  0  0  0  0  0  0  0
   -2.4401    1.0186    0.0696 C   0  0  0  0  0  0  0  0  0  0  0  0
    3.2643   -0.4777   -0.1013 C   0  0  0  0  0  0  0  0  0  0  0  0
    1.5475    1.6058   -1.0511 H   0  0  0  0  0  0  0  0  0  0  0  0
    1.7009    1.7459    0.7823 H   0  0  0  0  0  0  0  0  0  0  0  0
   -1.6839   -1.9705    0.9930 H   0  0  0  0  0  0  0  0  0  0  0  0
   -1.6693   -1.9669   -0.8019 H   0  0  0  0  0  0  0  0  0  0  0  0
   -3.6918   -0.6417    0.1574 H   0  0  0  0  0  0  0  0  0  0  0  0
    1.1298   -2.3180    0.0233 H   0  0  0  0  0  0  0  0  0  0  0  0
   -1.0469    2.6758   -0.0234 H   0  0  0  0  0  0  0  0  0  0  0  0
   -3.3108    1.6708    0.0850 H   0  0  0  0  0  0  0  0  0  0  0  0
    4.0020    0.3120   -0.1483 H   0  0  0  0  0  0  0  0  0  0  0  0
    3.6491   -1.4864   -0.0898 H   0  0  0  0  0  0  0  0  0  0  0  0
  1  3  1  0
  1  5  1  0
  1 11  1  0
  1 12  1  0
  2  4  1  0
  2  6  1  0
  2 13  1  0
  2 14  1  0
  3  4  1  0
  3  8  2  0
  4  7  2  0
  5  7  1  0
  5 10  2  0
  6  9  2  0
  6 15  1  0
  7 16  1  0
  8  9  1  0
  8 17  1  0
  9 18  1  0
 10 19  1  0
 10 20  1  0
M  END
