
     RDKit          3D

 21 22  0  0  0  0  0  0  0  0999 V2000
    0.0821   -0.7241   -0.7514 C   0  0  0  0  0  0  0  0  0  0  0  0
   -0.1166    0.7991   -0.6864 C   0  0  0  0  0  0  0  0  0  0  0  0
   -0.8604   -1.3095    0.3020 C   0  0  0  0  0  0  0  0  0  0  0  0
   -1.5781    0.9665   -0.2812 C   0  0  0  0  0  0  0  0  0  0  0  0
   -1.9270   -0.2484    0.5730 C   0  0  0  0  0  0  0  0  0  0  0  0
    1.5112   -1.1585   -0.5322 C   0  0  0  0  0  0  0  0  0  0  0  0
    0.8051    1.4683    0.3131 C   0  0  0  0  0  0  0  0  0  0  0  0
    2.3676   -0.4045    0.1604 C   0  0  0  0  0  0  0  0  0  0  0  0
    1.9734    0.9218    0.6592 C   0  0  0  0  0  0  0  0  0  0  0  0
   -0.2428   -1.0783   -1.7557 H   0  0  0  0  0  0  0  0  0  0  0  0
    0.0612    1.2553   -1.6852 H   0  0  0  0  0  0  0  0  0  0  0  0
   -2.9394   -0.6287    0.3144 H   0  0  0  0  0  0  0  0  0  0  0  0
   -1.9162    0.0329    1.6491 H   0  0  0  0  0  0  0  0  0  0  0  0
   -0.3172   -1.5321    1.2482 H   0  0  0  0  0  0  0  0  0  0  0  0
   -1.3227   -2.2504   -0.0690 H   0  0  0  0  0  0  0  0  0  0  0  0
   -1.7704    1.9168    0.2642 H   0  0  0  0  0  0  0  0  0  0  0  0
   -2.2099    0.9601   -1.1972 H   0  0  0  0  0  0  0  0  0  0  0  0
    1.8205   -2.1395   -0.8706 H   0  0  0  0  0  0  0  0  0  0  0  0
    0.5680    2.4630    0.6706 H   0  0  0  0  0  0  0  0  0  0  0  0
    3.3652   -0.7723    0.3629 H   0  0  0  0  0  0  0  0  0  0  0  0
    2.6465    1.4628    1.3119 H   0  0  0  0  0  0  0  0  0  0  0  0
  1  3  1  0
  1  2  1  0
  1  6  1  0
  1 10  1  0
  2  4  1  0
  2  7  1  0
  2 11  1  0
  3  5  1  0
  3 14  1  0
  3 15  1  0
  4  5  1  0
  4 16  1  0
  4 17  1  0
  5 12  1  0
  5 13  1  0
  6  8  2  0
  6 18  1  0
  7  9  2  0
  7 19  1  0
  8  9  1  0
  8 20  1  0
  9 21  1  0
M  END
