
     RDKit          3D

 34 34  0  0  0  0  0  0  0  0999 V2000
    0.9337   -1.2722   -0.1445 C   0  0  0  0  0  0  0  0  0  0  0  0
    1.8757   -0.2201   -0.6071 C   0  0  0  0  0  0  0  0  0  0  0  0
   -0.3862   -1.4853   -0.7974 C   0  0  0  0  0  0  0  0  0  0  0  0
    2.1184   -1.6739   -1.0169 C   0  0  0  0  0  0  0  0  0  0  0  0
    2.8960    0.2931    0.3738 C   0  0  0  0  0  0  0  0  0  0  0  0
    2.2701    0.9087    1.5938 C   0  0  0  0  0  0  0  0  0  0  0  0
   -3.3372    0.9114   -0.0766 C   0  0  0  0  0  0  0  0  0  0  0  0
   -1.1132   -2.5834   -0.0338 C   0  0  0  0  0  0  0  0  0  0  0  0
    1.4078    2.0641    1.1676 C   0  0  0  0  0  0  0  0  0  0  0  0
   -2.6633    2.0351   -0.8212 C   0  0  0  0  0  0  0  0  0  0  0  0
   -1.2733   -0.2917   -0.7449 C   0  0  0  0  0  0  0  0  0  0  0  0
   -2.4514   -0.2832   -0.1280 C   0  0  0  0  0  0  0  0  0  0  0  0
    0.9826   -1.5707    0.9414 H   0  0  0  0  0  0  0  0  0  0  0  0
    1.5184    0.4863   -1.3604 H   0  0  0  0  0  0  0  0  0  0  0  0
   -0.2862   -1.7363   -1.8723 H   0  0  0  0  0  0  0  0  0  0  0  0
    2.9461   -2.2365   -0.5357 H   0  0  0  0  0  0  0  0  0  0  0  0
    1.9664   -1.8566   -2.0797 H   0  0  0  0  0  0  0  0  0  0  0  0
    3.0979    1.1861    2.2749 H   0  0  0  0  0  0  0  0  0  0  0  0
    1.6364    0.1039    2.0609 H   0  0  0  0  0  0  0  0  0  0  0  0
    3.4814    1.0991   -0.1366 H   0  0  0  0  0  0  0  0  0  0  0  0
    3.6298   -0.4807    0.6961 H   0  0  0  0  0  0  0  0  0  0  0  0
   -4.3380    0.6755   -0.5211 H   0  0  0  0  0  0  0  0  0  0  0  0
   -3.5392    1.2188    0.9578 H   0  0  0  0  0  0  0  0  0  0  0  0
    1.5731    2.9683    1.8054 H   0  0  0  0  0  0  0  0  0  0  0  0
    1.6244    2.3440    0.1113 H   0  0  0  0  0  0  0  0  0  0  0  0
    0.3447    1.7348    1.1890 H   0  0  0  0  0  0  0  0  0  0  0  0
   -2.5187    1.7006   -1.8617 H   0  0  0  0  0  0  0  0  0  0  0  0
   -1.7274    2.2597   -0.2719 H   0  0  0  0  0  0  0  0  0  0  0  0
   -3.2632    2.9491   -0.8738 H   0  0  0  0  0  0  0  0  0  0  0  0
   -1.2148   -2.3115    1.0165 H   0  0  0  0  0  0  0  0  0  0  0  0
   -2.0372   -2.8615   -0.5524 H   0  0  0  0  0  0  0  0  0  0  0  0
   -0.4469   -3.4841   -0.0472 H   0  0  0  0  0  0  0  0  0  0  0  0
   -2.7908   -1.1918    0.3658 H   0  0  0  0  0  0  0  0  0  0  0  0
   -0.9158    0.6011   -1.2429 H   0  0  0  0  0  0  0  0  0  0  0  0
  1  2  1  0
  1 13  1  0
  1  4  1  0
  1  3  1  0
  2 14  1  0
  2  5  1  0
  2  4  1  0
  3 11  1  0
  3 15  1  0
  3  8  1  0
  4 16  1  0
  4 17  1  0
  5  6  1  0
  5 20  1  0
  5 21  1  0
  6 18  1  0
  6 19  1  0
  6  9  1  0
  7 12  1  0
  7 22  1  0
  7 23  1  0
  7 10  1  0
  8 30  1  0
  8 31  1  0
  8 32  1  0
  9 24  1  0
  9 25  1  0
  9 26  1  0
 10 27  1  0
 10 28  1  0
 10 29  1  0
 11 34  1  0
 11 12  2  3
 12 33  1  0
M  END
