
     RDKit          3D

 34 34  0  0  0  0  0  0  0  0999 V2000
    0.8426   -1.4642    0.0087 C   0  0  0  0  0  0  0  0  0  0  0  0
    1.7727   -0.4917   -0.7090 C   0  0  0  0  0  0  0  0  0  0  0  0
   -0.4538   -1.7929   -0.7551 C   0  0  0  0  0  0  0  0  0  0  0  0
    2.1364   -1.9707   -0.6225 C   0  0  0  0  0  0  0  0  0  0  0  0
    2.5722    0.4421    0.2126 C   0  0  0  0  0  0  0  0  0  0  0  0
    1.7256    1.6305    0.6883 C   0  0  0  0  0  0  0  0  0  0  0  0
   -2.9298    0.8324    0.7224 C   0  0  0  0  0  0  0  0  0  0  0  0
   -1.0315   -3.1267   -0.2734 C   0  0  0  0  0  0  0  0  0  0  0  0
    1.3357    2.5699   -0.4523 C   0  0  0  0  0  0  0  0  0  0  0  0
   -2.3143    2.1912    0.4009 C   0  0  0  0  0  0  0  0  0  0  0  0
   -1.4590   -0.6750   -0.5983 C   0  0  0  0  0  0  0  0  0  0  0  0
   -1.9169   -0.2718    0.5993 C   0  0  0  0  0  0  0  0  0  0  0  0
    0.8422   -1.4251    1.1201 H   0  0  0  0  0  0  0  0  0  0  0  0
    1.4711   -0.1494   -1.7225 H   0  0  0  0  0  0  0  0  0  0  0  0
   -0.2454   -1.8989   -1.8438 H   0  0  0  0  0  0  0  0  0  0  0  0
    2.9241   -2.2367    0.1140 H   0  0  0  0  0  0  0  0  0  0  0  0
    2.0204   -2.5261   -1.5775 H   0  0  0  0  0  0  0  0  0  0  0  0
    2.3139    2.2080    1.4337 H   0  0  0  0  0  0  0  0  0  0  0  0
    0.8082    1.2616    1.1957 H   0  0  0  0  0  0  0  0  0  0  0  0
    3.4632    0.8125   -0.3383 H   0  0  0  0  0  0  0  0  0  0  0  0
    2.9427   -0.1004    1.1105 H   0  0  0  0  0  0  0  0  0  0  0  0
   -3.7875    0.6360    0.0430 H   0  0  0  0  0  0  0  0  0  0  0  0
   -3.3152    0.8536    1.7643 H   0  0  0  0  0  0  0  0  0  0  0  0
    0.8069    3.4540   -0.0382 H   0  0  0  0  0  0  0  0  0  0  0  0
    2.2404    2.9195   -0.9935 H   0  0  0  0  0  0  0  0  0  0  0  0
    0.6533    2.0599   -1.1637 H   0  0  0  0  0  0  0  0  0  0  0  0
   -1.9440    2.2150   -0.6458 H   0  0  0  0  0  0  0  0  0  0  0  0
   -1.4737    2.4059    1.0942 H   0  0  0  0  0  0  0  0  0  0  0  0
   -3.0826    2.9837    0.5207 H   0  0  0  0  0  0  0  0  0  0  0  0
   -1.2396   -3.1017    0.8176 H   0  0  0  0  0  0  0  0  0  0  0  0
   -1.9751   -3.3523   -0.8149 H   0  0  0  0  0  0  0  0  0  0  0  0
   -0.3093   -3.9461   -0.4764 H   0  0  0  0  0  0  0  0  0  0  0  0
   -1.5791   -0.7652    1.5059 H   0  0  0  0  0  0  0  0  0  0  0  0
   -1.8150   -0.1807   -1.4984 H   0  0  0  0  0  0  0  0  0  0  0  0
  1  2  1  0
  1 13  1  0
  1  4  1  0
  1  3  1  0
  2 14  1  0
  2  5  1  0
  2  4  1  0
  3 11  1  0
  3 15  1  0
  3  8  1  0
  4 16  1  0
  4 17  1  0
  5  6  1  0
  5 20  1  0
  5 21  1  0
  6 18  1  0
  6 19  1  0
  6  9  1  0
  7 12  1  0
  7 22  1  0
  7 23  1  0
  7 10  1  0
  8 30  1  0
  8 31  1  0
  8 32  1  0
  9 24  1  0
  9 25  1  0
  9 26  1  0
 10 27  1  0
 10 28  1  0
 10 29  1  0
 11 34  1  0
 11 12  2  3
 12 33  1  0
M  END
