
     RDKit          3D

 32 33  0  0  0  0  0  0  0  0999 V2000
   -0.6502   -0.7905   -0.5888 C   0  0  0  0  0  0  0  0  0  0  0  0
   -2.0490   -0.1568   -0.6007 C   0  0  0  0  0  0  0  0  0  0  0  0
    0.4322    0.1172   -1.2113 C   0  0  0  0  0  0  0  0  0  0  0  0
   -2.5307   -1.2525   -1.5520 C   0  0  0  0  0  0  0  0  0  0  0  0
   -1.1417   -1.8781   -1.5444 C   0  0  0  0  0  0  0  0  0  0  0  0
   -2.7638   -0.1851    0.7620 C   0  0  0  0  0  0  0  0  0  0  0  0
    1.7582   -0.4386   -1.1834 C   0  0  0  0  0  0  0  0  0  0  0  0
    3.4437    0.9917    0.4649 C   0  0  0  0  0  0  0  0  0  0  0  0
   -2.1879    0.8582    1.7156 C   0  0  0  0  0  0  0  0  0  0  0  0
    3.2742    0.8942    1.9761 C   0  0  0  0  0  0  0  0  0  0  0  0
    2.1687    0.6388   -0.2322 C   0  0  0  0  0  0  0  0  0  0  0  0
    0.8837    1.1813   -0.2629 C   0  0  0  0  0  0  0  0  0  0  0  0
   -2.0876    0.8474   -1.0813 H   0  0  0  0  0  0  0  0  0  0  0  0
   -0.3589   -1.2116    0.4015 H   0  0  0  0  0  0  0  0  0  0  0  0
    0.1531    0.5411   -2.2032 H   0  0  0  0  0  0  0  0  0  0  0  0
   -3.8418    0.0351    0.6053 H   0  0  0  0  0  0  0  0  0  0  0  0
   -2.6833   -1.1920    1.2283 H   0  0  0  0  0  0  0  0  0  0  0  0
   -3.3005   -1.9291   -1.1187 H   0  0  0  0  0  0  0  0  0  0  0  0
   -2.8059   -0.8518   -2.5522 H   0  0  0  0  0  0  0  0  0  0  0  0
   -1.1360   -2.8857   -1.0742 H   0  0  0  0  0  0  0  0  0  0  0  0
   -0.6617   -1.8547   -2.5479 H   0  0  0  0  0  0  0  0  0  0  0  0
    4.2437    0.2941    0.1379 H   0  0  0  0  0  0  0  0  0  0  0  0
    3.7373    2.0261    0.1873 H   0  0  0  0  0  0  0  0  0  0  0  0
    2.2905   -0.3494   -2.1560 H   0  0  0  0  0  0  0  0  0  0  0  0
    1.8428   -1.4474   -0.7205 H   0  0  0  0  0  0  0  0  0  0  0  0
   -1.1254    0.6315    1.9444 H   0  0  0  0  0  0  0  0  0  0  0  0
   -2.2587    1.8722    1.2675 H   0  0  0  0  0  0  0  0  0  0  0  0
   -2.7619    0.8490    2.6659 H   0  0  0  0  0  0  0  0  0  0  0  0
    2.9838   -0.1388    2.2649 H   0  0  0  0  0  0  0  0  0  0  0  0
    2.4942    1.6051    2.3238 H   0  0  0  0  0  0  0  0  0  0  0  0
    4.2334    1.1473    2.4747 H   0  0  0  0  0  0  0  0  0  0  0  0
    0.4054    2.0323    0.2098 H   0  0  0  0  0  0  0  0  0  0  0  0
  1  2  1  0
  1 14  1  0
  1  5  1  0
  1  3  1  0
  2  6  1  0
  2 13  1  0
  2  4  1  0
  3  7  1  0
  3 12  1  0
  3 15  1  0
  4  5  1  0
  4 18  1  0
  4 19  1  0
  5 20  1  0
  5 21  1  0
  6 16  1  0
  6 17  1  0
  6  9  1  0
  7 11  1  0
  7 24  1  0
  7 25  1  0
  8 11  1  0
  8 22  1  0
  8 23  1  0
  8 10  1  0
  9 26  1  0
  9 27  1  0
  9 28  1  0
 10 29  1  0
 10 30  1  0
 10 31  1  0
 11 12  2  0
 12 32  1  0
M  END
