
     RDKit          3D

 14 14  0  0  0  0  0  0  0  0999 V2000
    0.6576   -0.2065    0.0730 C   0  0  0  0  0  0  0  0  0  0  0  0
    0.3569    1.1390   -0.0376 C   0  0  0  0  0  0  0  0  0  0  0  0
   -0.3258   -1.1788    0.0374 C   0  0  0  0  0  0  0  0  0  0  0  0
   -0.9759    1.4918   -0.1874 C   0  0  0  0  0  0  0  0  0  0  0  0
   -1.9483    0.5130   -0.2216 C   0  0  0  0  0  0  0  0  0  0  0  0
   -1.6687   -0.8346   -0.1129 C   0  0  0  0  0  0  0  0  0  0  0  0
    2.0527   -0.5349    0.2274 C   0  0  0  0  0  0  0  0  0  0  0  0
    3.2333   -0.7966    0.3667 C   0  0  0  0  0  0  0  0  0  0  0  0
    1.1220    1.9020   -0.0102 H   0  0  0  0  0  0  0  0  0  0  0  0
   -1.2875    2.5267   -0.2802 H   0  0  0  0  0  0  0  0  0  0  0  0
   -2.9956    0.8280   -0.3416 H   0  0  0  0  0  0  0  0  0  0  0  0
   -2.4370   -1.5868   -0.1412 H   0  0  0  0  0  0  0  0  0  0  0  0
   -0.0457   -2.2247    0.1278 H   0  0  0  0  0  0  0  0  0  0  0  0
    4.2619   -1.0373    0.5006 H   0  0  0  0  0  0  0  0  0  0  0  0
  1  2  2  0
  1  3  1  0
  1  7  1  0
  2  4  1  0
  2  9  1  0
  3  6  2  0
  3 13  1  0
  4  5  2  0
  4 10  1  0
  5  6  1  0
  5 11  1  0
  6 12  1  0
  7  8  3  0
  8 14  1  0
M  END
