
     RDKit          3D

 18 19  0  0  0  0  0  0  0  0999 V2000
   -0.0249    0.7078   -0.0246 C   0  0  0  0  0  0  0  0  0  0  0  0
    0.0249   -0.7078    0.0246 C   0  0  0  0  0  0  0  0  0  0  0  0
    1.1610    1.4487    0.0967 C   0  0  0  0  0  0  0  0  0  0  0  0
    1.2594   -1.3536    0.1939 C   0  0  0  0  0  0  0  0  0  0  0  0
   -1.2594    1.3536   -0.1939 C   0  0  0  0  0  0  0  0  0  0  0  0
   -1.1610   -1.4487   -0.0967 C   0  0  0  0  0  0  0  0  0  0  0  0
    2.3839    0.7925    0.2650 C   0  0  0  0  0  0  0  0  0  0  0  0
    2.4329   -0.6034    0.3134 C   0  0  0  0  0  0  0  0  0  0  0  0
   -2.4329    0.6034   -0.3134 C   0  0  0  0  0  0  0  0  0  0  0  0
   -2.3839   -0.7925   -0.2650 C   0  0  0  0  0  0  0  0  0  0  0  0
    3.2962    1.3675    0.3581 H   0  0  0  0  0  0  0  0  0  0  0  0
    3.3830   -1.1052    0.4439 H   0  0  0  0  0  0  0  0  0  0  0  0
    1.1420    2.5315    0.0615 H   0  0  0  0  0  0  0  0  0  0  0  0
    1.3164   -2.4349    0.2338 H   0  0  0  0  0  0  0  0  0  0  0  0
   -1.3164    2.4349   -0.2338 H   0  0  0  0  0  0  0  0  0  0  0  0
   -1.1420   -2.5315   -0.0615 H   0  0  0  0  0  0  0  0  0  0  0  0
   -3.3830    1.1052   -0.4439 H   0  0  0  0  0  0  0  0  0  0  0  0
   -3.2962   -1.3675   -0.3581 H   0  0  0  0  0  0  0  0  0  0  0  0
  1  2  1  0
  1  3  2  0
  1  5  1  0
  2  4  2  0
  2  6  1  0
  3  7  1  0
  3 13  1  0
  4  8  1  0
  4 14  1  0
  5  9  2  0
  5 15  1  0
  6 10  2  0
  6 16  1  0
  7  8  2  0
  7 11  1  0
  8 12  1  0
  9 10  1  0
  9 17  1  0
 10 18  1  0
M  END
