
     RDKit          3D

 32 32  0  0  0  0  0  0  0  0999 V2000
   -0.4863    1.1692   -0.3702 C   0  0  0  0  0  0  0  0  0  0  0  0
    0.1983   -0.1233    0.0620 C   0  0  0  0  0  0  0  0  0  0  0  0
   -1.9007    1.2227    0.1085 C   0  0  0  0  0  0  0  0  0  0  0  0
   -0.4296   -1.3017   -0.5978 C   0  0  0  0  0  0  0  0  0  0  0  0
   -0.5179    1.2240   -1.8861 C   0  0  0  0  0  0  0  0  0  0  0  0
    0.0269   -2.5535    0.1499 C   0  0  0  0  0  0  0  0  0  0  0  0
   -2.0210    1.4597    1.5914 C   0  0  0  0  0  0  0  0  0  0  0  0
    4.0293    0.0814    0.5163 C   0  0  0  0  0  0  0  0  0  0  0  0
   -1.9099   -1.1852   -0.4933 C   0  0  0  0  0  0  0  0  0  0  0  0
   -2.5513   -0.0817   -0.1846 C   0  0  0  0  0  0  0  0  0  0  0  0
    1.6550   -0.0162   -0.1753 C   0  0  0  0  0  0  0  0  0  0  0  0
    2.5683   -0.0287    0.7912 C   0  0  0  0  0  0  0  0  0  0  0  0
    0.1468    1.9828    0.0516 H   0  0  0  0  0  0  0  0  0  0  0  0
   -0.1574   -1.4338   -1.6572 H   0  0  0  0  0  0  0  0  0  0  0  0
   -2.4184    2.0479   -0.3942 H   0  0  0  0  0  0  0  0  0  0  0  0
    0.0657   -0.2426    1.1577 H   0  0  0  0  0  0  0  0  0  0  0  0
   -3.0803    1.2960    1.8839 H   0  0  0  0  0  0  0  0  0  0  0  0
   -0.6117   -3.4187   -0.0663 H   0  0  0  0  0  0  0  0  0  0  0  0
    1.0635   -2.7813   -0.1701 H   0  0  0  0  0  0  0  0  0  0  0  0
    0.0076   -2.3635    1.2464 H   0  0  0  0  0  0  0  0  0  0  0  0
   -1.7156    2.4685    1.9119 H   0  0  0  0  0  0  0  0  0  0  0  0
   -1.4453    0.7181    2.1871 H   0  0  0  0  0  0  0  0  0  0  0  0
   -0.3738    2.2787   -2.2364 H   0  0  0  0  0  0  0  0  0  0  0  0
    0.2016    0.5276   -2.3409 H   0  0  0  0  0  0  0  0  0  0  0  0
   -1.5271    0.9323   -2.2855 H   0  0  0  0  0  0  0  0  0  0  0  0
    4.4221    0.9171    1.1422 H   0  0  0  0  0  0  0  0  0  0  0  0
    4.1670    0.3243   -0.5552 H   0  0  0  0  0  0  0  0  0  0  0  0
    4.5195   -0.8561    0.8363 H   0  0  0  0  0  0  0  0  0  0  0  0
   -2.4782   -2.1099   -0.6956 H   0  0  0  0  0  0  0  0  0  0  0  0
   -3.6472   -0.1085   -0.1355 H   0  0  0  0  0  0  0  0  0  0  0  0
    2.1950   -0.1250    1.8145 H   0  0  0  0  0  0  0  0  0  0  0  0
    2.0053    0.0793   -1.2066 H   0  0  0  0  0  0  0  0  0  0  0  0
  1  5  1  0
  1 13  1  0
  1  2  1  0
  1  3  1  0
  2 16  1  0
  2 11  1  0
  2  4  1  0
  3  7  1  0
  3 15  1  0
  3 10  1  0
  4  6  1  0
  4 14  1  0
  4  9  1  0
  5 23  1  0
  5 24  1  0
  5 25  1  0
  6 18  1  0
  6 19  1  0
  6 20  1  0
  7 21  1  0
  7 22  1  0
  7 17  1  0
  8 12  1  0
  8 27  1  0
  8 28  1  0
  8 26  1  0
  9 29  1  0
  9 10  2  0
 10 30  1  0
 11 12  2  3
 11 32  1  0
 12 31  1  0
M  END
