
     RDKit          3D

 12 12  0  0  0  0  0  0  0  0999 V2000
    1.2680    0.5909    0.0204 C   0  0  0  0  0  0  0  0  0  0  0  0
    1.1460   -0.8016   -0.0374 C   0  0  0  0  0  0  0  0  0  0  0  0
    0.1220    1.3925    0.0577 C   0  0  0  0  0  0  0  0  0  0  0  0
   -0.1220   -1.3925   -0.0577 C   0  0  0  0  0  0  0  0  0  0  0  0
   -1.1460    0.8016    0.0374 C   0  0  0  0  0  0  0  0  0  0  0  0
   -1.2680   -0.5909   -0.0204 C   0  0  0  0  0  0  0  0  0  0  0  0
    2.2489    1.0480    0.0361 H   0  0  0  0  0  0  0  0  0  0  0  0
    2.0326   -1.4218   -0.0663 H   0  0  0  0  0  0  0  0  0  0  0  0
    0.2163    2.4698    0.1024 H   0  0  0  0  0  0  0  0  0  0  0  0
   -0.2163   -2.4698   -0.1024 H   0  0  0  0  0  0  0  0  0  0  0  0
   -2.0326    1.4218    0.0663 H   0  0  0  0  0  0  0  0  0  0  0  0
   -2.2489   -1.0480   -0.0361 H   0  0  0  0  0  0  0  0  0  0  0  0
  1  2  2  0
  1  3  1  0
  1  7  1  0
  2  4  1  0
  2  8  1  0
  3  5  2  0
  3  9  1  0
  4  6  2  0
  4 10  1  0
  5  6  1  0
  5 11  1  0
  6 12  1  0
M  END
