
     RDKit          3D

 22 22  0  0  0  0  0  0  0  0999 V2000
    0.1075   -0.9954   -0.0452 C   0  0  0  0  0  0  0  0  0  0  0  0
   -1.8450   -0.9762    2.1419 C   0  0  0  0  0  0  0  0  0  0  0  0
    0.4672   -1.3766    1.3498 C   0  0  0  0  0  0  0  0  0  0  0  0
   -1.3434   -1.3244   -0.2635 C   0  0  0  0  0  0  0  0  0  0  0  0
    0.3384    0.4628   -0.2842 C   0  0  0  0  0  0  0  0  0  0  0  0
   -0.4254   -1.3647    2.3351 C   0  0  0  0  0  0  0  0  0  0  0  0
   -2.2217   -1.3132    0.7340 C   0  0  0  0  0  0  0  0  0  0  0  0
    1.1714    0.9095   -1.2122 C   0  0  0  0  0  0  0  0  0  0  0  0
    1.3560    2.3333   -1.3998 C   0  0  0  0  0  0  0  0  0  0  0  0
    2.1800    2.7773   -2.3178 C   0  0  0  0  0  0  0  0  0  0  0  0
    0.7453   -1.5869   -0.7258 H   0  0  0  0  0  0  0  0  0  0  0  0
   -2.5192   -1.5072    2.8588 H   0  0  0  0  0  0  0  0  0  0  0  0
   -2.0050    0.0904    2.3042 H   0  0  0  0  0  0  0  0  0  0  0  0
    1.5120   -1.6747    1.5504 H   0  0  0  0  0  0  0  0  0  0  0  0
   -1.6255   -1.5727   -1.2955 H   0  0  0  0  0  0  0  0  0  0  0  0
   -0.2140    1.1480    0.3447 H   0  0  0  0  0  0  0  0  0  0  0  0
   -0.0374   -1.6668    3.3210 H   0  0  0  0  0  0  0  0  0  0  0  0
   -3.2524   -1.5705    0.4525 H   0  0  0  0  0  0  0  0  0  0  0  0
    0.8203    3.0423   -0.7894 H   0  0  0  0  0  0  0  0  0  0  0  0
    1.7071    0.1975   -1.8228 H   0  0  0  0  0  0  0  0  0  0  0  0
    2.7487    2.1250   -2.9645 H   0  0  0  0  0  0  0  0  0  0  0  0
    2.3351    3.8431   -2.4771 H   0  0  0  0  0  0  0  0  0  0  0  0
  1  3  1  0
  1  4  1  0
  1  5  1  0
  1 11  1  0
  2  6  1  0
  2  7  1  0
  2 12  1  0
  2 13  1  0
  3  6  2  0
  3 14  1  0
  4  7  2  0
  4 15  1  0
  5  8  2  3
  5 16  1  0
  6 17  1  0
  7 18  1  0
  8  9  1  0
  8 20  1  0
  9 10  2  0
  9 19  1  0
 10 21  1  0
 10 22  1  0
M  END
