
     RDKit          3D

 14 14  0  0  0  0  0  0  0  0999 V2000
   -1.4338    0.2560    0.1108 C   0  0  0  0  0  0  0  0  0  0  0  0
    1.4097   -0.3036    0.2330 C   0  0  0  0  0  0  0  0  0  0  0  0
   -0.4162    1.3642    0.0001 C   0  0  0  0  0  0  0  0  0  0  0  0
    0.8997    1.1052    0.0566 C   0  0  0  0  0  0  0  0  0  0  0  0
   -0.8778   -1.0619   -0.3688 C   0  0  0  0  0  0  0  0  0  0  0  0
    0.4381   -1.3209   -0.3122 C   0  0  0  0  0  0  0  0  0  0  0  0
   -1.7401    0.1527    1.1730 H   0  0  0  0  0  0  0  0  0  0  0  0
   -2.3292    0.5179   -0.4912 H   0  0  0  0  0  0  0  0  0  0  0  0
    2.3840   -0.4097   -0.2887 H   0  0  0  0  0  0  0  0  0  0  0  0
    1.5653   -0.4978    1.3150 H   0  0  0  0  0  0  0  0  0  0  0  0
   -0.7569    2.3913   -0.0871 H   0  0  0  0  0  0  0  0  0  0  0  0
    1.6096    1.9255    0.0145 H   0  0  0  0  0  0  0  0  0  0  0  0
   -1.5594   -1.8265   -0.7284 H   0  0  0  0  0  0  0  0  0  0  0  0
    0.8071   -2.2923   -0.6268 H   0  0  0  0  0  0  0  0  0  0  0  0
  1  3  1  0
  1  5  1  0
  1  7  1  0
  1  8  1  0
  2  4  1  0
  2  6  1  0
  2  9  1  0
  2 10  1  0
  3  4  2  0
  3 11  1  0
  4 12  1  0
  5  6  2  0
  5 13  1  0
  6 14  1  0
M  END
