
     RDKit          3D

 21 21  0  0  0  0  0  0  0  0999 V2000
    0.0754    0.1160    0.2837 C   0  0  0  0  0  0  0  0  0  0  0  0
    1.3734    0.7101   -0.3002 C   0  0  0  0  0  0  0  0  0  0  0  0
   -0.7486   -0.6297   -0.7949 C   0  0  0  0  0  0  0  0  0  0  0  0
   -0.7584    1.2045    0.9270 C   0  0  0  0  0  0  0  0  0  0  0  0
   -2.1289   -0.9638   -0.2927 C   0  0  0  0  0  0  0  0  0  0  0  0
    2.2924   -0.3499   -0.8480 C   0  0  0  0  0  0  0  0  0  0  0  0
   -2.7620   -0.1420    0.5501 C   0  0  0  0  0  0  0  0  0  0  0  0
   -2.0757    1.0439    1.0949 C   0  0  0  0  0  0  0  0  0  0  0  0
    2.9332   -1.2076   -0.0486 C   0  0  0  0  0  0  0  0  0  0  0  0
    0.3390   -0.6096    1.0850 H   0  0  0  0  0  0  0  0  0  0  0  0
    1.9169    1.2812    0.4847 H   0  0  0  0  0  0  0  0  0  0  0  0
    1.1206    1.4225   -1.1158 H   0  0  0  0  0  0  0  0  0  0  0  0
   -0.8542    0.0083   -1.6993 H   0  0  0  0  0  0  0  0  0  0  0  0
   -0.2322   -1.5685   -1.0888 H   0  0  0  0  0  0  0  0  0  0  0  0
    2.4586   -0.4001   -1.9200 H   0  0  0  0  0  0  0  0  0  0  0  0
   -2.6410   -1.8358   -0.6795 H   0  0  0  0  0  0  0  0  0  0  0  0
   -0.2793    2.0867    1.3346 H   0  0  0  0  0  0  0  0  0  0  0  0
   -2.6466    1.7900    1.6325 H   0  0  0  0  0  0  0  0  0  0  0  0
   -3.7844   -0.3476    0.8400 H   0  0  0  0  0  0  0  0  0  0  0  0
    2.8038   -1.1713    1.0288 H   0  0  0  0  0  0  0  0  0  0  0  0
    3.5979   -1.9526   -0.4736 H   0  0  0  0  0  0  0  0  0  0  0  0
  1  2  1  0
  1  3  1  0
  1  4  1  0
  1 10  1  0
  2  6  1  0
  2 11  1  0
  2 12  1  0
  3  5  1  0
  3 13  1  0
  3 14  1  0
  4  8  2  0
  4 17  1  0
  5  7  2  0
  5 16  1  0
  6  9  2  0
  6 15  1  0
  7  8  1  0
  7 19  1  0
  8 18  1  0
  9 20  1  0
  9 21  1  0
M  END
