
     RDKit          3D

 34 34  0  0  0  0  0  0  0  0999 V2000
   -2.2123   -0.3022   -0.2218 C   0  0  0  0  0  0  0  0  0  0  0  0
   -1.3011   -0.4854   -1.4462 C   0  0  0  0  0  0  0  0  0  0  0  0
   -3.4212   -0.6987   -1.0702 C   0  0  0  0  0  0  0  0  0  0  0  0
   -2.5208   -0.8642   -2.2877 C   0  0  0  0  0  0  0  0  0  0  0  0
   -2.2976    1.1464    0.2912 C   0  0  0  0  0  0  0  0  0  0  0  0
    2.5514    0.6521    1.4313 C   0  0  0  0  0  0  0  0  0  0  0  0
   -0.2959   -1.6432   -1.3065 C   0  0  0  0  0  0  0  0  0  0  0  0
    2.9608   -0.1600    0.1975 C   0  0  0  0  0  0  0  0  0  0  0  0
   -1.0248    1.5568    1.0239 C   0  0  0  0  0  0  0  0  0  0  0  0
    3.7445    0.8947    2.3507 C   0  0  0  0  0  0  0  0  0  0  0  0
    0.8245   -1.2985   -0.3643 C   0  0  0  0  0  0  0  0  0  0  0  0
    1.7849   -0.4248   -0.7029 C   0  0  0  0  0  0  0  0  0  0  0  0
   -2.0264   -1.0342    0.5968 H   0  0  0  0  0  0  0  0  0  0  0  0
   -0.8300    0.4550   -1.8113 H   0  0  0  0  0  0  0  0  0  0  0  0
   -3.1533    1.2258    0.9960 H   0  0  0  0  0  0  0  0  0  0  0  0
   -2.4780    1.8522   -0.5497 H   0  0  0  0  0  0  0  0  0  0  0  0
   -4.1727    0.1103   -1.2072 H   0  0  0  0  0  0  0  0  0  0  0  0
   -3.8661   -1.6639   -0.7431 H   0  0  0  0  0  0  0  0  0  0  0  0
    2.1425    1.6347    1.1111 H   0  0  0  0  0  0  0  0  0  0  0  0
    1.7663    0.1096    2.0014 H   0  0  0  0  0  0  0  0  0  0  0  0
   -2.7385   -0.1104   -3.0758 H   0  0  0  0  0  0  0  0  0  0  0  0
   -2.5113   -1.9100   -2.6677 H   0  0  0  0  0  0  0  0  0  0  0  0
   -0.8115   -2.5541   -0.9298 H   0  0  0  0  0  0  0  0  0  0  0  0
    0.1269   -1.8887   -2.3050 H   0  0  0  0  0  0  0  0  0  0  0  0
    3.7247    0.4090   -0.3756 H   0  0  0  0  0  0  0  0  0  0  0  0
    3.4140   -1.1275    0.5065 H   0  0  0  0  0  0  0  0  0  0  0  0
   -0.1705    1.5847    0.3173 H   0  0  0  0  0  0  0  0  0  0  0  0
   -1.1549    2.5710    1.4564 H   0  0  0  0  0  0  0  0  0  0  0  0
   -0.8026    0.8442    1.8465 H   0  0  0  0  0  0  0  0  0  0  0  0
    4.1590   -0.0721    2.7078 H   0  0  0  0  0  0  0  0  0  0  0  0
    4.5372    1.4584    1.8141 H   0  0  0  0  0  0  0  0  0  0  0  0
    3.4204    1.4888    3.2311 H   0  0  0  0  0  0  0  0  0  0  0  0
    0.8803   -1.8210    0.5868 H   0  0  0  0  0  0  0  0  0  0  0  0
    1.7518    0.0651   -1.6724 H   0  0  0  0  0  0  0  0  0  0  0  0
  1  5  1  0
  1 13  1  0
  1  2  1  0
  1  3  1  0
  2 14  1  0
  2  4  1  0
  2  7  1  0
  3  4  1  0
  3 17  1  0
  3 18  1  0
  4 21  1  0
  4 22  1  0
  5 15  1  0
  5 16  1  0
  5  9  1  0
  6  8  1  0
  6 19  1  0
  6 20  1  0
  6 10  1  0
  7 11  1  0
  7 23  1  0
  7 24  1  0
  8 25  1  0
  8 12  1  0
  8 26  1  0
  9 27  1  0
  9 28  1  0
  9 29  1  0
 10 30  1  0
 10 31  1  0
 10 32  1  0
 11 12  2  3
 11 33  1  0
 12 34  1  0
M  END
