
     RDKit          3D

 32 32  0  0  0  0  0  0  0  0999 V2000
   -1.2295   -0.4537   -1.1873 C   0  0  0  0  0  0  0  0  0  0  0  0
    0.1259    0.0826   -0.7885 C   0  0  0  0  0  0  0  0  0  0  0  0
   -1.8782   -1.3903   -0.2594 C   0  0  0  0  0  0  0  0  0  0  0  0
    1.1688   -0.9760   -0.6024 C   0  0  0  0  0  0  0  0  0  0  0  0
   -4.0579   -0.2576    0.8944 C   0  0  0  0  0  0  0  0  0  0  0  0
    4.3199    0.1651    1.3479 C   0  0  0  0  0  0  0  0  0  0  0  0
    4.7121    1.1283    0.2350 C   0  0  0  0  0  0  0  0  0  0  0  0
   -4.7301    1.0697    0.8014 C   0  0  0  0  0  0  0  0  0  0  0  0
   -2.8465   -0.3301   -0.0025 C   0  0  0  0  0  0  0  0  0  0  0  0
   -2.2750    0.4958   -0.8203 C   0  0  0  0  0  0  0  0  0  0  0  0
    3.0598   -0.5135    0.9349 C   0  0  0  0  0  0  0  0  0  0  0  0
    2.4429   -0.2738   -0.2113 C   0  0  0  0  0  0  0  0  0  0  0  0
   -1.2614   -0.8034   -2.2463 H   0  0  0  0  0  0  0  0  0  0  0  0
    0.4584    0.7227   -1.6386 H   0  0  0  0  0  0  0  0  0  0  0  0
    0.0607    0.7007    0.1151 H   0  0  0  0  0  0  0  0  0  0  0  0
    5.1306   -0.5189    1.5914 H   0  0  0  0  0  0  0  0  0  0  0  0
    4.0645    0.7833    2.2540 H   0  0  0  0  0  0  0  0  0  0  0  0
    1.3694   -1.4959   -1.5732 H   0  0  0  0  0  0  0  0  0  0  0  0
    0.9448   -1.6847    0.2010 H   0  0  0  0  0  0  0  0  0  0  0  0
   -4.7436   -1.0360    0.5116 H   0  0  0  0  0  0  0  0  0  0  0  0
   -3.7933   -0.5054    1.9311 H   0  0  0  0  0  0  0  0  0  0  0  0
   -1.2966   -1.6185    0.6678 H   0  0  0  0  0  0  0  0  0  0  0  0
   -2.3251   -2.3129   -0.7042 H   0  0  0  0  0  0  0  0  0  0  0  0
    5.6633    1.6474    0.4659 H   0  0  0  0  0  0  0  0  0  0  0  0
    3.9042    1.8633    0.0775 H   0  0  0  0  0  0  0  0  0  0  0  0
    4.8579    0.5491   -0.6970 H   0  0  0  0  0  0  0  0  0  0  0  0
   -5.8303    0.9213    0.7778 H   0  0  0  0  0  0  0  0  0  0  0  0
   -4.5054    1.7440    1.6587 H   0  0  0  0  0  0  0  0  0  0  0  0
   -4.4452    1.5947   -0.1321 H   0  0  0  0  0  0  0  0  0  0  0  0
    2.5975   -1.2580    1.6014 H   0  0  0  0  0  0  0  0  0  0  0  0
    2.8283    0.4440   -0.9275 H   0  0  0  0  0  0  0  0  0  0  0  0
   -2.4909    1.5168   -1.1233 H   0  0  0  0  0  0  0  0  0  0  0  0
  1  3  1  0
  1 10  1  0
  1 13  1  0
  1  2  1  0
  2  4  1  0
  2 14  1  0
  2 15  1  0
  3  9  1  0
  3 22  1  0
  3 23  1  0
  4 12  1  0
  4 18  1  0
  4 19  1  0
  5  9  1  0
  5 20  1  0
  5 21  1  0
  5  8  1  0
  6 11  1  0
  6 16  1  0
  6 17  1  0
  6  7  1  0
  7 24  1  0
  7 25  1  0
  7 26  1  0
  8 27  1  0
  8 28  1  0
  8 29  1  0
  9 10  2  0
 10 32  1  0
 11 30  1  0
 11 12  2  3
 12 31  1  0
M  END
