
     RDKit          3D

 22 22  0  0  0  0  0  0  0  0999 V2000
   -0.3990    0.6867   -1.4362 C   0  0  0  0  0  0  0  0  0  0  0  0
   -3.1481   -0.2268    1.1163 C   0  0  0  0  0  0  0  0  0  0  0  0
    0.7401    0.2660   -0.5834 C   0  0  0  0  0  0  0  0  0  0  0  0
   -1.7052    0.4746   -0.7538 C   0  0  0  0  0  0  0  0  0  0  0  0
   -1.8141   -0.0319    0.4715 C   0  0  0  0  0  0  0  0  0  0  0  0
    1.1888   -1.0409   -0.6682 C   0  0  0  0  0  0  0  0  0  0  0  0
    1.3642    1.1530    0.2958 C   0  0  0  0  0  0  0  0  0  0  0  0
    2.2464   -1.4631    0.1118 C   0  0  0  0  0  0  0  0  0  0  0  0
    2.4284    0.7264    1.0802 C   0  0  0  0  0  0  0  0  0  0  0  0
    2.8738   -0.5864    0.9902 C   0  0  0  0  0  0  0  0  0  0  0  0
   -0.2890    1.7757   -1.6469 H   0  0  0  0  0  0  0  0  0  0  0  0
   -0.4275    0.1168   -2.3902 H   0  0  0  0  0  0  0  0  0  0  0  0
   -3.9138   -0.5116    0.3552 H   0  0  0  0  0  0  0  0  0  0  0  0
   -3.4597    0.7595    1.5026 H   0  0  0  0  0  0  0  0  0  0  0  0
   -3.0963   -0.9844    1.9150 H   0  0  0  0  0  0  0  0  0  0  0  0
   -2.5919    0.7559   -1.3072 H   0  0  0  0  0  0  0  0  0  0  0  0
   -0.9268   -0.3129    1.0239 H   0  0  0  0  0  0  0  0  0  0  0  0
    0.6899   -1.7088   -1.3560 H   0  0  0  0  0  0  0  0  0  0  0  0
    1.0321    2.1711    0.3774 H   0  0  0  0  0  0  0  0  0  0  0  0
    2.5712   -2.4951    0.0187 H   0  0  0  0  0  0  0  0  0  0  0  0
    2.9319    1.4098    1.7777 H   0  0  0  0  0  0  0  0  0  0  0  0
    3.7046   -0.9334    1.5974 H   0  0  0  0  0  0  0  0  0  0  0  0
  1  3  1  0
  1  4  1  0
  1 11  1  0
  1 12  1  0
  2  5  1  0
  2 13  1  0
  2 14  1  0
  2 15  1  0
  3  6  2  0
  3  7  1  0
  4  5  2  3
  4 16  1  0
  5 17  1  0
  6  8  1  0
  6 18  1  0
  7  9  2  0
  7 19  1  0
  8 10  2  0
  8 20  1  0
  9 10  1  0
  9 21  1  0
 10 22  1  0
M  END
