
     RDKit          3D

 22 22  0  0  0  0  0  0  0  0999 V2000
   -0.4393    0.2277   -1.4368 C   0  0  0  0  0  0  0  0  0  0  0  0
   -3.3600   -0.3734    1.0284 C   0  0  0  0  0  0  0  0  0  0  0  0
    0.7992    0.1635   -0.5836 C   0  0  0  0  0  0  0  0  0  0  0  0
   -1.6632    0.4148   -0.5846 C   0  0  0  0  0  0  0  0  0  0  0  0
   -2.1399   -0.5740    0.1846 C   0  0  0  0  0  0  0  0  0  0  0  0
    1.3607   -1.0767   -0.2353 C   0  0  0  0  0  0  0  0  0  0  0  0
    1.3785    1.3444   -0.0894 C   0  0  0  0  0  0  0  0  0  0  0  0
    2.4948   -1.1317    0.5811 C   0  0  0  0  0  0  0  0  0  0  0  0
    2.5126    1.2848    0.7265 C   0  0  0  0  0  0  0  0  0  0  0  0
    3.0711    0.0479    1.0604 C   0  0  0  0  0  0  0  0  0  0  0  0
   -0.3551    1.0836   -2.1409 H   0  0  0  0  0  0  0  0  0  0  0  0
   -0.5466   -0.6908   -2.0547 H   0  0  0  0  0  0  0  0  0  0  0  0
   -4.2284   -0.1191    0.3846 H   0  0  0  0  0  0  0  0  0  0  0  0
   -3.1862    0.4470    1.7564 H   0  0  0  0  0  0  0  0  0  0  0  0
   -3.5873   -1.3059    1.5860 H   0  0  0  0  0  0  0  0  0  0  0  0
   -2.1706    1.3757   -0.6064 H   0  0  0  0  0  0  0  0  0  0  0  0
   -1.6410   -1.5390    0.2042 H   0  0  0  0  0  0  0  0  0  0  0  0
    0.9204   -1.9989   -0.5937 H   0  0  0  0  0  0  0  0  0  0  0  0
    0.9503    2.3085   -0.3349 H   0  0  0  0  0  0  0  0  0  0  0  0
    2.9253   -2.0892    0.8444 H   0  0  0  0  0  0  0  0  0  0  0  0
    2.9567    2.1974    1.1024 H   0  0  0  0  0  0  0  0  0  0  0  0
    3.9482    0.0034    1.6930 H   0  0  0  0  0  0  0  0  0  0  0  0
  1  3  1  0
  1  4  1  0
  1 11  1  0
  1 12  1  0
  2  5  1  0
  2 13  1  0
  2 14  1  0
  2 15  1  0
  3  6  2  0
  3  7  1  0
  4  5  2  3
  4 16  1  0
  5 17  1  0
  6  8  1  0
  6 18  1  0
  7  9  2  0
  7 19  1  0
  8 10  2  0
  8 20  1  0
  9 10  1  0
  9 21  1  0
 10 22  1  0
M  END
