
     RDKit          3D

 32 32  0  0  0  0  0  0  0  0999 V2000
   -0.1365   -0.3710   -0.8247 C   0  0  0  0  0  0  0  0  0  0  0  0
   -2.1177    0.1178   -0.6171 C   0  0  0  0  0  0  0  0  0  0  0  0
    1.1533   -0.7797   -0.1945 C   0  0  0  0  0  0  0  0  0  0  0  0
   -1.3567   -1.1919   -0.4567 C   0  0  0  0  0  0  0  0  0  0  0  0
   -0.8509    0.7883   -0.1222 C   0  0  0  0  0  0  0  0  0  0  0  0
   -3.3251    0.2597    0.2619 C   0  0  0  0  0  0  0  0  0  0  0  0
   -3.9481    1.6123   -0.0335 C   0  0  0  0  0  0  0  0  0  0  0  0
    3.9722    1.8594   -0.5120 C   0  0  0  0  0  0  0  0  0  0  0  0
    2.1971    0.1632   -0.7015 C   0  0  0  0  0  0  0  0  0  0  0  0
    1.5407   -2.1356   -0.6299 C   0  0  0  0  0  0  0  0  0  0  0  0
    2.9339    0.9280    0.0667 C   0  0  0  0  0  0  0  0  0  0  0  0
    1.7709   -3.0987    0.2728 C   0  0  0  0  0  0  0  0  0  0  0  0
   -2.3427    0.3325   -1.6683 H   0  0  0  0  0  0  0  0  0  0  0  0
   -0.0501   -0.1722   -1.8931 H   0  0  0  0  0  0  0  0  0  0  0  0
    1.1464   -0.7355    0.9091 H   0  0  0  0  0  0  0  0  0  0  0  0
   -3.1261    0.0810    1.3161 H   0  0  0  0  0  0  0  0  0  0  0  0
   -4.0631   -0.5050   -0.1205 H   0  0  0  0  0  0  0  0  0  0  0  0
   -1.6154   -1.9609   -1.2141 H   0  0  0  0  0  0  0  0  0  0  0  0
   -1.2749   -1.5380    0.5800 H   0  0  0  0  0  0  0  0  0  0  0  0
   -0.6458    1.7805   -0.5465 H   0  0  0  0  0  0  0  0  0  0  0  0
   -0.7408    0.6737    0.9823 H   0  0  0  0  0  0  0  0  0  0  0  0
   -4.1093    1.6517   -1.1346 H   0  0  0  0  0  0  0  0  0  0  0  0
   -3.2326    2.3972    0.2188 H   0  0  0  0  0  0  0  0  0  0  0  0
   -4.8970    1.7705    0.5244 H   0  0  0  0  0  0  0  0  0  0  0  0
    4.7567    1.2606   -1.0186 H   0  0  0  0  0  0  0  0  0  0  0  0
    3.4985    2.5198   -1.2709 H   0  0  0  0  0  0  0  0  0  0  0  0
    4.3715    2.4973    0.3008 H   0  0  0  0  0  0  0  0  0  0  0  0
    2.7908    0.8888    1.1577 H   0  0  0  0  0  0  0  0  0  0  0  0
    2.3430    0.2069   -1.7723 H   0  0  0  0  0  0  0  0  0  0  0  0
    1.6500   -2.3932   -1.6753 H   0  0  0  0  0  0  0  0  0  0  0  0
    1.6549   -2.8163    1.3140 H   0  0  0  0  0  0  0  0  0  0  0  0
    2.0530   -4.0909   -0.0079 H   0  0  0  0  0  0  0  0  0  0  0  0
  1  4  1  0
  1  5  1  0
  1 14  1  0
  1  3  1  0
  2  6  1  0
  2 13  1  0
  2  5  1  0
  2  4  1  0
  3  9  1  0
  3 15  1  0
  3 10  1  0
  4 18  1  0
  4 19  1  0
  5 20  1  0
  5 21  1  0
  6 16  1  0
  6 17  1  0
  6  7  1  0
  7 22  1  0
  7 23  1  0
  7 24  1  0
  8 11  1  0
  8 25  1  0
  8 26  1  0
  8 27  1  0
  9 11  2  3
  9 29  1  0
 10 30  1  0
 10 12  2  0
 11 28  1  0
 12 31  1  0
 12 32  1  0
M  END
