
     RDKit          3D

 32 32  0  0  0  0  0  0  0  0999 V2000
   -0.1688   -0.4885   -1.4433 C   0  0  0  0  0  0  0  0  0  0  0  0
   -2.1997    0.1470   -1.0414 C   0  0  0  0  0  0  0  0  0  0  0  0
    0.8820   -0.8510   -0.3703 C   0  0  0  0  0  0  0  0  0  0  0  0
   -1.5128   -1.2002   -1.2635 C   0  0  0  0  0  0  0  0  0  0  0  0
   -0.8566    0.8595   -1.2095 C   0  0  0  0  0  0  0  0  0  0  0  0
   -2.8187    0.2890    0.3602 C   0  0  0  0  0  0  0  0  0  0  0  0
   -3.4319    1.6724    0.5591 C   0  0  0  0  0  0  0  0  0  0  0  0
    3.6244    1.8026    0.3157 C   0  0  0  0  0  0  0  0  0  0  0  0
    2.0754    0.0639   -0.5065 C   0  0  0  0  0  0  0  0  0  0  0  0
    1.3350   -2.2815   -0.5362 C   0  0  0  0  0  0  0  0  0  0  0  0
    2.4425    0.8982    0.4765 C   0  0  0  0  0  0  0  0  0  0  0  0
    2.0475   -2.9002    0.4104 C   0  0  0  0  0  0  0  0  0  0  0  0
   -2.9156    0.3868   -1.8595 H   0  0  0  0  0  0  0  0  0  0  0  0
    0.2183   -0.5839   -2.4836 H   0  0  0  0  0  0  0  0  0  0  0  0
    0.4185   -0.7453    0.6381 H   0  0  0  0  0  0  0  0  0  0  0  0
   -2.0545    0.1088    1.1482 H   0  0  0  0  0  0  0  0  0  0  0  0
   -3.6191   -0.4730    0.4782 H   0  0  0  0  0  0  0  0  0  0  0  0
   -1.8519   -1.6934   -2.2006 H   0  0  0  0  0  0  0  0  0  0  0  0
   -1.5518   -1.8770   -0.3805 H   0  0  0  0  0  0  0  0  0  0  0  0
   -0.8357    1.5021   -2.1165 H   0  0  0  0  0  0  0  0  0  0  0  0
   -0.5094    1.3904   -0.2952 H   0  0  0  0  0  0  0  0  0  0  0  0
   -4.2211    1.8568   -0.2006 H   0  0  0  0  0  0  0  0  0  0  0  0
   -2.6530    2.4594    0.4762 H   0  0  0  0  0  0  0  0  0  0  0  0
   -3.8900    1.7335    1.5687 H   0  0  0  0  0  0  0  0  0  0  0  0
    4.5417    1.2005    0.1450 H   0  0  0  0  0  0  0  0  0  0  0  0
    3.4643    2.4853   -0.5455 H   0  0  0  0  0  0  0  0  0  0  0  0
    3.7594    2.4100    1.2350 H   0  0  0  0  0  0  0  0  0  0  0  0
    1.8825    0.9306    1.4070 H   0  0  0  0  0  0  0  0  0  0  0  0
    2.6417    0.0459   -1.4349 H   0  0  0  0  0  0  0  0  0  0  0  0
    1.0752   -2.8320   -1.4367 H   0  0  0  0  0  0  0  0  0  0  0  0
    2.3240   -2.3862    1.3261 H   0  0  0  0  0  0  0  0  0  0  0  0
    2.3586   -3.9303    0.2702 H   0  0  0  0  0  0  0  0  0  0  0  0
  1  4  1  0
  1  5  1  0
  1 14  1  0
  1  3  1  0
  2  6  1  0
  2 13  1  0
  2  5  1  0
  2  4  1  0
  3  9  1  0
  3 15  1  0
  3 10  1  0
  4 18  1  0
  4 19  1  0
  5 20  1  0
  5 21  1  0
  6 16  1  0
  6 17  1  0
  6  7  1  0
  7 22  1  0
  7 23  1  0
  7 24  1  0
  8 11  1  0
  8 25  1  0
  8 26  1  0
  8 27  1  0
  9 11  2  3
  9 29  1  0
 10 30  1  0
 10 12  2  0
 11 28  1  0
 12 31  1  0
 12 32  1  0
M  END
