
     RDKit          3D

 20 21  0  0  0  0  0  0  0  0999 V2000
   -0.0201   -0.7911   -0.6969 C   0  0  0  0  0  0  0  0  0  0  0  0
   -0.0191    0.7684   -0.7218 C   0  0  0  0  0  0  0  0  0  0  0  0
    1.3766   -1.3406   -0.5355 C   0  0  0  0  0  0  0  0  0  0  0  0
   -0.9112   -1.3329    0.3978 C   0  0  0  0  0  0  0  0  0  0  0  0
   -1.4053    1.3240   -0.5013 C   0  0  0  0  0  0  0  0  0  0  0  0
    0.9306    1.3441    0.3041 C   0  0  0  0  0  0  0  0  0  0  0  0
   -1.9996   -0.6639    0.7895 C   0  0  0  0  0  0  0  0  0  0  0  0
    2.3113   -0.6656    0.1406 C   0  0  0  0  0  0  0  0  0  0  0  0
   -2.3006    0.6718    0.2466 C   0  0  0  0  0  0  0  0  0  0  0  0
    2.0395    0.6870    0.6562 C   0  0  0  0  0  0  0  0  0  0  0  0
   -0.4246   -1.1552   -1.6665 H   0  0  0  0  0  0  0  0  0  0  0  0
    0.3310    1.1009   -1.7235 H   0  0  0  0  0  0  0  0  0  0  0  0
   -0.7305   -2.3235    0.7985 H   0  0  0  0  0  0  0  0  0  0  0  0
    1.5974   -2.3375   -0.8968 H   0  0  0  0  0  0  0  0  0  0  0  0
   -1.6465    2.3090   -0.8815 H   0  0  0  0  0  0  0  0  0  0  0  0
    0.7714    2.3472    0.6823 H   0  0  0  0  0  0  0  0  0  0  0  0
   -2.6735   -1.1079    1.5108 H   0  0  0  0  0  0  0  0  0  0  0  0
   -3.2590    1.1279    0.4588 H   0  0  0  0  0  0  0  0  0  0  0  0
    3.2803   -1.1155    0.3140 H   0  0  0  0  0  0  0  0  0  0  0  0
    2.7519    1.1532    1.3247 H   0  0  0  0  0  0  0  0  0  0  0  0
  1  2  1  0
  1  3  1  0
  1  4  1  0
  1 11  1  0
  2  5  1  0
  2  6  1  0
  2 12  1  0
  3  8  2  0
  3 14  1  0
  4  7  2  0
  4 13  1  0
  5  9  2  0
  5 15  1  0
  6 10  2  0
  6 16  1  0
  7  9  1  0
  7 17  1  0
  8 10  1  0
  8 19  1  0
  9 18  1  0
 10 20  1  0
M  END
