
     RDKit          3D

 17 17  0  0  0  0  0  0  0  0999 V2000
    0.3364    0.0349    0.1826 C   0  0  0  0  0  0  0  0  0  0  0  0
   -0.5417   -0.9503   -0.5831 C   0  0  0  0  0  0  0  0  0  0  0  0
   -1.8295   -0.8013    0.2377 C   0  0  0  0  0  0  0  0  0  0  0  0
   -0.6188    1.1778    0.3078 C   0  0  0  0  0  0  0  0  0  0  0  0
   -1.8786    0.7014    0.3405 C   0  0  0  0  0  0  0  0  0  0  0  0
    1.5848    0.3717   -0.5029 C   0  0  0  0  0  0  0  0  0  0  0  0
    2.7768    0.2405    0.1092 C   0  0  0  0  0  0  0  0  0  0  0  0
    0.5083   -0.3982    1.1937 H   0  0  0  0  0  0  0  0  0  0  0  0
   -0.7661   -0.5162   -1.5956 H   0  0  0  0  0  0  0  0  0  0  0  0
   -0.1550   -1.9664   -0.6017 H   0  0  0  0  0  0  0  0  0  0  0  0
   -2.6988   -1.2216   -0.2772 H   0  0  0  0  0  0  0  0  0  0  0  0
   -1.6606   -1.2676    1.2114 H   0  0  0  0  0  0  0  0  0  0  0  0
   -2.8030    1.2677    0.4257 H   0  0  0  0  0  0  0  0  0  0  0  0
   -0.3155    2.2192    0.3618 H   0  0  0  0  0  0  0  0  0  0  0  0
    1.5481    0.7317   -1.5174 H   0  0  0  0  0  0  0  0  0  0  0  0
    3.6890    0.4968   -0.4203 H   0  0  0  0  0  0  0  0  0  0  0  0
    2.8243   -0.1201    1.1278 H   0  0  0  0  0  0  0  0  0  0  0  0
  1  2  1  0
  1  4  1  0
  1  6  1  0
  1  8  1  0
  2  3  1  0
  2  9  1  0
  2 10  1  0
  3  5  1  0
  3 11  1  0
  3 12  1  0
  4  5  2  0
  4 14  1  0
  5 13  1  0
  6  7  2  0
  6 15  1  0
  7 16  1  0
  7 17  1  0
M  END
