
     RDKit          3D

 16 16  0  0  0  0  0  0  0  0999 V2000
    0.3300    0.6463   -0.0922 C   0  0  0  0  0  0  0  0  0  0  0  0
    1.0007   -0.6171   -0.6253 C   0  0  0  0  0  0  0  0  0  0  0  0
   -0.9667    0.3978    0.6921 C   0  0  0  0  0  0  0  0  0  0  0  0
    2.1852   -0.3677    0.2937 C   0  0  0  0  0  0  0  0  0  0  0  0
   -2.1300    0.0853   -0.2451 C   0  0  0  0  0  0  0  0  0  0  0  0
    1.5147    0.8853    0.8309 C   0  0  0  0  0  2  0  0  0  0  0  0
    0.2417    1.4489   -0.8573 H   0  0  0  0  0  0  0  0  0  0  0  0
   -1.2163    1.3116    1.2735 H   0  0  0  0  0  0  0  0  0  0  0  0
   -0.8369   -0.4412    1.4113 H   0  0  0  0  0  0  0  0  0  0  0  0
    0.4664   -1.5604   -0.3760 H   0  0  0  0  0  0  0  0  0  0  0  0
    1.2729   -0.5296   -1.6998 H   0  0  0  0  0  0  0  0  0  0  0  0
    3.1197   -0.1338   -0.2601 H   0  0  0  0  0  0  0  0  0  0  0  0
    2.2946   -1.1473    1.0779 H   0  0  0  0  0  0  0  0  0  0  0  0
   -3.0557   -0.0650    0.3495 H   0  0  0  0  0  0  0  0  0  0  0  0
   -2.2938    0.9280   -0.9502 H   0  0  0  0  0  0  0  0  0  0  0  0
   -1.9266   -0.8410   -0.8229 H   0  0  0  0  0  0  0  0  0  0  0  0
  1  3  1  0
  1  7  1  0
  1  6  1  0
  1  2  1  0
  2  4  1  0
  2 10  1  0
  2 11  1  0
  3  8  1  0
  3  9  1  0
  3  5  1  0
  4  6  1  0
  4 12  1  0
  4 13  1  0
  5 14  1  0
  5 15  1  0
  5 16  1  0
M  RAD  1   6   3
M  END
