
     RDKit          3D

 16 16  0  0  0  0  0  0  0  0999 V2000
    0.3173    0.8133   -0.1804 C   0  0  0  0  0  0  0  0  0  0  0  0
    0.9071   -0.3721   -0.8664 C   0  0  0  0  0  0  0  0  0  0  0  0
   -0.8134    0.4834    0.7549 C   0  0  0  0  0  0  0  0  0  0  0  0
    1.8642   -0.4554    0.3312 C   0  0  0  0  0  0  0  0  0  0  0  0
   -1.8877   -0.1776   -0.0848 C   0  0  0  0  0  0  0  0  0  0  0  0
    1.6673    1.0382    0.4727 C   0  0  0  0  0  2  0  0  0  0  0  0
    0.0002    1.6250   -0.8640 H   0  0  0  0  0  0  0  0  0  0  0  0
   -1.1850    1.3809    1.2659 H   0  0  0  0  0  0  0  0  0  0  0  0
   -0.5227   -0.2629    1.5205 H   0  0  0  0  0  0  0  0  0  0  0  0
    0.3511   -1.3053   -0.9159 H   0  0  0  0  0  0  0  0  0  0  0  0
    1.4618   -0.0738   -1.7788 H   0  0  0  0  0  0  0  0  0  0  0  0
    2.8490   -0.7786   -0.0234 H   0  0  0  0  0  0  0  0  0  0  0  0
    1.4254   -1.0017    1.1899 H   0  0  0  0  0  0  0  0  0  0  0  0
   -2.8165   -0.1609    0.5229 H   0  0  0  0  0  0  0  0  0  0  0  0
   -2.0106    0.4441   -0.9876 H   0  0  0  0  0  0  0  0  0  0  0  0
   -1.6076   -1.1966   -0.3566 H   0  0  0  0  0  0  0  0  0  0  0  0
  1  3  1  0
  1  7  1  0
  1  6  1  0
  1  2  1  0
  2  4  1  0
  2 10  1  0
  2 11  1  0
  3  8  1  0
  3  9  1  0
  3  5  1  0
  4  6  1  0
  4 12  1  0
  4 13  1  0
  5 14  1  0
  5 15  1  0
  5 16  1  0
M  RAD  1   6   3
M  END
