
     RDKit          3D

 21 22  0  0  0  0  0  0  0  0999 V2000
   -1.5353   -0.3724   -0.3744 C   0  0  0  0  0  0  0  0  0  0  0  0
    0.1036    0.7718   -0.8220 C   0  0  0  0  0  0  0  0  0  0  0  0
   -1.2306    1.1050   -0.1609 C   0  0  0  0  0  0  0  0  0  0  0  0
    2.3565   -0.6638    0.0803 C   0  0  0  0  0  0  0  0  0  0  0  0
   -2.4100   -0.9936    0.6772 C   0  0  0  0  0  0  0  0  0  0  0  0
   -0.0583   -0.5756   -0.1551 C   0  0  0  0  0  0  0  0  0  0  0  0
    1.2600    1.5184   -0.2874 C   0  0  0  0  0  0  0  0  0  0  0  0
    1.0011   -1.2509    0.2693 C   0  0  0  0  0  0  0  0  0  0  0  0
    2.3084    0.8091    0.1305 C   0  0  0  0  0  0  0  0  0  0  0  0
   -1.8573   -0.5695   -1.3978 H   0  0  0  0  0  0  0  0  0  0  0  0
    0.0047    0.7009   -1.9161 H   0  0  0  0  0  0  0  0  0  0  0  0
   -1.8649    1.8070   -0.7232 H   0  0  0  0  0  0  0  0  0  0  0  0
   -1.1127    1.2893    0.9290 H   0  0  0  0  0  0  0  0  0  0  0  0
    2.6972   -0.9919   -0.9368 H   0  0  0  0  0  0  0  0  0  0  0  0
    3.0389   -1.0671    0.8703 H   0  0  0  0  0  0  0  0  0  0  0  0
   -3.2376   -0.2547    0.8490 H   0  0  0  0  0  0  0  0  0  0  0  0
   -1.8912   -1.0750    1.6560 H   0  0  0  0  0  0  0  0  0  0  0  0
   -2.7895   -1.9411    0.2828 H   0  0  0  0  0  0  0  0  0  0  0  0
    1.2316    2.5909   -0.2480 H   0  0  0  0  0  0  0  0  0  0  0  0
    3.1444    1.3899    0.5190 H   0  0  0  0  0  0  0  0  0  0  0  0
    0.8413   -2.2267    0.7490 H   0  0  0  0  0  0  0  0  0  0  0  0
  1  3  1  0
  1  5  1  0
  1  6  1  0
  1 10  1  0
  2  3  1  0
  2  6  1  0
  2  7  1  0
  2 11  1  0
  3 12  1  0
  3 13  1  0
  4  8  1  0
  4  9  1  0
  4 14  1  0
  4 15  1  0
  5 16  1  0
  5 17  1  0
  5 18  1  0
  6  8  2  0
  7  9  2  0
  7 19  1  0
  8 21  1  0
  9 20  1  0
M  END
