
     RDKit          3D

 21 22  0  0  0  0  0  0  0  0999 V2000
   -1.5434   -0.3428   -0.3899 C   0  0  0  0  0  0  0  0  0  0  0  0
    0.0514    0.8763   -0.8746 C   0  0  0  0  0  0  0  0  0  0  0  0
   -1.3862    1.1520   -0.5414 C   0  0  0  0  0  0  0  0  0  0  0  0
    2.2732   -0.8088   -0.0344 C   0  0  0  0  0  0  0  0  0  0  0  0
   -2.0495   -0.7626    0.9922 C   0  0  0  0  0  0  0  0  0  0  0  0
   -0.0545   -0.5947   -0.5616 C   0  0  0  0  0  0  0  0  0  0  0  0
    1.1225    1.4372    0.0378 C   0  0  0  0  0  0  0  0  0  0  0  0
    0.9034   -1.4371   -0.1920 C   0  0  0  0  0  0  0  0  0  0  0  0
    2.1684    0.6552    0.4111 C   0  0  0  0  0  0  0  0  0  0  0  0
   -2.1335   -0.8047   -1.2126 H   0  0  0  0  0  0  0  0  0  0  0  0
    0.2944    1.0435   -1.9475 H   0  0  0  0  0  0  0  0  0  0  0  0
   -1.9563    1.5578   -1.4052 H   0  0  0  0  0  0  0  0  0  0  0  0
   -1.5138    1.7276    0.4029 H   0  0  0  0  0  0  0  0  0  0  0  0
    2.7956   -0.8432   -1.0138 H   0  0  0  0  0  0  0  0  0  0  0  0
    2.8691   -1.3859    0.7035 H   0  0  0  0  0  0  0  0  0  0  0  0
   -3.0942   -0.4126    1.1296 H   0  0  0  0  0  0  0  0  0  0  0  0
   -1.4149   -0.3344    1.7985 H   0  0  0  0  0  0  0  0  0  0  0  0
   -2.0327   -1.8698    1.0746 H   0  0  0  0  0  0  0  0  0  0  0  0
    1.0846    2.4781    0.3431 H   0  0  0  0  0  0  0  0  0  0  0  0
    2.9513    1.0747    1.0350 H   0  0  0  0  0  0  0  0  0  0  0  0
    0.6653   -2.4056    0.2350 H   0  0  0  0  0  0  0  0  0  0  0  0
  1  3  1  0
  1  5  1  0
  1  6  1  0
  1 10  1  0
  2  3  1  0
  2  6  1  0
  2  7  1  0
  2 11  1  0
  3 12  1  0
  3 13  1  0
  4  8  1  0
  4  9  1  0
  4 14  1  0
  4 15  1  0
  5 16  1  0
  5 17  1  0
  5 18  1  0
  6  8  2  0
  7  9  2  0
  7 19  1  0
  8 21  1  0
  9 20  1  0
M  END
