
     RDKit          3D

 20 20  0  0  0  0  0  0  0  0999 V2000
   -0.6537   -2.4058   -0.4495 C   0  0  0  0  0  0  0  0  0  0  0  0
   -0.6760   -0.0016    0.4287 C   0  0  0  0  0  0  0  0  0  0  0  0
    0.5431    0.4399   -0.1868 C   0  0  0  0  0  0  0  0  0  0  0  0
   -1.2122   -1.2471    0.3216 C   0  0  0  0  0  0  0  0  0  0  0  0
   -1.3900    0.9303    1.2171 C   0  0  0  0  0  0  0  0  0  0  0  0
    0.9826    1.7614    0.0090 C   0  0  0  0  0  0  0  0  0  0  0  0
   -0.9316    2.2355    1.3950 C   0  0  0  0  0  0  0  0  0  0  0  0
    0.2506    2.6497    0.7931 C   0  0  0  0  0  0  0  0  0  0  0  0
    2.0667   -1.0594   -1.6932 C   0  0  0  0  0  0  0  0  0  0  0  0
    1.2968   -0.3242   -0.9400 C   0  0  0  0  0  0  0  0  0  0  0  0
    0.3421   -2.6910   -0.0510 H   0  0  0  0  0  0  0  0  0  0  0  0
   -0.5972   -2.1594   -1.5301 H   0  0  0  0  0  0  0  0  0  0  0  0
   -1.3255   -3.2828   -0.3381 H   0  0  0  0  0  0  0  0  0  0  0  0
   -2.1439   -1.4622    0.8360 H   0  0  0  0  0  0  0  0  0  0  0  0
   -2.3175    0.6524    1.7062 H   0  0  0  0  0  0  0  0  0  0  0  0
    1.9018    2.1145   -0.4478 H   0  0  0  0  0  0  0  0  0  0  0  0
   -1.4979    2.9286    2.0038 H   0  0  0  0  0  0  0  0  0  0  0  0
    0.6024    3.6637    0.9341 H   0  0  0  0  0  0  0  0  0  0  0  0
    2.8602   -1.6432   -1.2474 H   0  0  0  0  0  0  0  0  0  0  0  0
    1.8992   -1.0994   -2.7606 H   0  0  0  0  0  0  0  0  0  0  0  0
  1  4  1  0
  1 11  1  0
  1 12  1  0
  1 13  1  0
  2  3  1  0
  2  5  1  0
  2  4  2  3
  3  6  1  0
  3 10  2  0
  4 14  1  0
  5  7  2  0
  5 15  1  0
  6  8  2  0
  6 16  1  0
  7  8  1  0
  7 17  1  0
  8 18  1  0
  9 10  2  0
  9 19  1  0
  9 20  1  0
M  END
