
     RDKit          3D

 34 34  0  0  0  0  0  0  0  0999 V2000
    1.5056   -0.4233    0.8664 C   0  0  0  0  0  0  0  0  0  0  0  0
    0.3779   -1.1847    0.1537 C   0  0  0  0  0  0  0  0  0  0  0  0
   -0.5642   -0.8839    1.3270 C   0  0  0  0  0  0  0  0  0  0  0  0
    0.5589   -0.1159    2.0295 C   0  0  0  0  0  0  0  0  0  0  0  0
    1.9752    0.8384    0.1210 C   0  0  0  0  0  0  0  0  0  0  0  0
    2.8592    0.4750   -1.0780 C   0  0  0  0  0  0  0  0  0  0  0  0
   -3.9222    0.3125   -0.2020 C   0  0  0  0  0  0  0  0  0  0  0  0
    0.6717   -2.6772   -0.0193 C   0  0  0  0  0  0  0  0  0  0  0  0
    3.3397    1.7261   -1.8071 C   0  0  0  0  0  0  0  0  0  0  0  0
   -3.5326    1.3486   -1.2528 C   0  0  0  0  0  0  0  0  0  0  0  0
   -1.7374   -0.0207    0.9319 C   0  0  0  0  0  0  0  0  0  0  0  0
   -2.7413   -0.5260    0.2010 C   0  0  0  0  0  0  0  0  0  0  0  0
    0.0579   -0.7157   -0.8050 H   0  0  0  0  0  0  0  0  0  0  0  0
    2.3550   -1.0672    1.1903 H   0  0  0  0  0  0  0  0  0  0  0  0
   -0.8774   -1.7830    1.9047 H   0  0  0  0  0  0  0  0  0  0  0  0
    0.3589    0.9696    2.1722 H   0  0  0  0  0  0  0  0  0  0  0  0
    0.8797   -0.6181    2.9684 H   0  0  0  0  0  0  0  0  0  0  0  0
    3.7442   -0.1007   -0.7293 H   0  0  0  0  0  0  0  0  0  0  0  0
    2.2888   -0.1579   -1.7916 H   0  0  0  0  0  0  0  0  0  0  0  0
    2.5615    1.4671    0.8263 H   0  0  0  0  0  0  0  0  0  0  0  0
    1.0990    1.4325   -0.2235 H   0  0  0  0  0  0  0  0  0  0  0  0
   -4.7060   -0.3500   -0.6277 H   0  0  0  0  0  0  0  0  0  0  0  0
   -4.3482    0.8205    0.6903 H   0  0  0  0  0  0  0  0  0  0  0  0
    3.9378    2.3656   -1.1234 H   0  0  0  0  0  0  0  0  0  0  0  0
    3.9772    1.4330   -2.6676 H   0  0  0  0  0  0  0  0  0  0  0  0
    2.4728    2.3067   -2.1886 H   0  0  0  0  0  0  0  0  0  0  0  0
   -3.1062    0.8472   -2.1479 H   0  0  0  0  0  0  0  0  0  0  0  0
   -2.7856    2.0602   -0.8411 H   0  0  0  0  0  0  0  0  0  0  0  0
   -4.4327    1.9212   -1.5607 H   0  0  0  0  0  0  0  0  0  0  0  0
    0.9877   -3.1403    0.9405 H   0  0  0  0  0  0  0  0  0  0  0  0
    1.4815   -2.8113   -0.7669 H   0  0  0  0  0  0  0  0  0  0  0  0
   -0.2400   -3.1947   -0.3851 H   0  0  0  0  0  0  0  0  0  0  0  0
   -2.7194   -1.5713   -0.0963 H   0  0  0  0  0  0  0  0  0  0  0  0
   -1.7770    1.0179    1.2496 H   0  0  0  0  0  0  0  0  0  0  0  0
  1  2  1  0
  1 14  1  0
  1  5  1  0
  1  4  1  0
  2 13  1  0
  2  8  1  0
  2  3  1  0
  3 11  1  0
  3 15  1  0
  3  4  1  0
  4 16  1  0
  4 17  1  0
  5  6  1  0
  5 20  1  0
  5 21  1  0
  6 18  1  0
  6 19  1  0
  6  9  1  0
  7 12  1  0
  7 22  1  0
  7 23  1  0
  7 10  1  0
  8 30  1  0
  8 31  1  0
  8 32  1  0
  9 24  1  0
  9 25  1  0
  9 26  1  0
 10 27  1  0
 10 28  1  0
 10 29  1  0
 11 34  1  0
 11 12  2  3
 12 33  1  0
M  END
