
     RDKit          3D

 17 17  0  0  0  0  0  0  0  0999 V2000
   -1.8400    0.1023    0.5635 C   0  0  0  0  0  0  0  0  0  0  0  0
   -1.2175   -1.1900    0.0116 C   0  0  0  0  0  0  0  0  0  0  0  0
    2.4238    0.0739   -0.2554 C   0  0  0  0  0  0  0  0  0  0  0  0
    0.9290    0.0416   -0.1380 C   0  0  0  0  0  0  0  0  0  0  0  0
    0.2880   -1.1255    0.0395 C   0  0  0  0  0  0  0  0  0  0  0  0
   -1.1578    1.3169   -0.0074 C   0  0  0  0  0  0  0  0  0  0  0  0
    0.1504    1.2931   -0.2846 C   0  0  0  0  0  0  0  0  0  0  0  0
   -2.9237    0.1319    0.3212 H   0  0  0  0  0  0  0  0  0  0  0  0
   -1.7285    0.1201    1.6691 H   0  0  0  0  0  0  0  0  0  0  0  0
   -1.5460   -1.3358   -1.0401 H   0  0  0  0  0  0  0  0  0  0  0  0
   -1.5660   -2.0591    0.6092 H   0  0  0  0  0  0  0  0  0  0  0  0
    2.8104    1.0952   -0.0529 H   0  0  0  0  0  0  0  0  0  0  0  0
    2.8871   -0.6213    0.4771 H   0  0  0  0  0  0  0  0  0  0  0  0
    2.7213   -0.2262   -1.2819 H   0  0  0  0  0  0  0  0  0  0  0  0
   -1.7174    2.2356   -0.1302 H   0  0  0  0  0  0  0  0  0  0  0  0
    0.8474   -2.0496    0.1253 H   0  0  0  0  0  0  0  0  0  0  0  0
    0.6395    2.1970   -0.6259 H   0  0  0  0  0  0  0  0  0  0  0  0
  1  2  1  0
  1  6  1  0
  1  8  1  0
  1  9  1  0
  2  5  1  0
  2 10  1  0
  2 11  1  0
  3  4  1  0
  3 12  1  0
  3 13  1  0
  3 14  1  0
  4  5  2  0
  4  7  1  0
  5 16  1  0
  6  7  2  0
  6 15  1  0
  7 17  1  0
M  END
