
     RDKit          3D

 17 17  0  0  0  0  0  0  0  0999 V2000
   -0.9499   -0.9655    0.5350 C   0  0  0  0  0  0  0  0  0  0  0  0
    0.3327   -1.1617   -0.2597 C   0  0  0  0  0  0  0  0  0  0  0  0
   -1.7393    0.1410   -0.1551 C   0  0  0  0  0  0  0  0  0  0  0  0
    1.1119    0.1046   -0.0533 C   0  0  0  0  0  0  0  0  0  0  0  0
   -0.9169    1.3541   -0.2657 C   0  0  0  0  0  0  0  0  0  0  0  0
    0.4066    1.3705   -0.2222 C   0  0  0  0  0  0  0  0  0  0  0  0
    2.3714    0.0733    0.2648 C   0  0  0  0  0  0  0  0  0  0  0  0
   -0.7360   -0.5784    1.5554 H   0  0  0  0  0  0  0  0  0  0  0  0
   -1.5180   -1.9028    0.5627 H   0  0  0  0  0  0  0  0  0  0  0  0
   -2.6898    0.3001    0.3997 H   0  0  0  0  0  0  0  0  0  0  0  0
   -1.9610   -0.2315   -1.1801 H   0  0  0  0  0  0  0  0  0  0  0  0
    0.0762   -1.2024   -1.3444 H   0  0  0  0  0  0  0  0  0  0  0  0
    0.8923   -2.0427    0.0722 H   0  0  0  0  0  0  0  0  0  0  0  0
   -1.4058    2.3125   -0.3920 H   0  0  0  0  0  0  0  0  0  0  0  0
    0.9378    2.3054   -0.3110 H   0  0  0  0  0  0  0  0  0  0  0  0
    2.9182    1.0165    0.4100 H   0  0  0  0  0  0  0  0  0  0  0  0
    2.8695   -0.8929    0.3836 H   0  0  0  0  0  0  0  0  0  0  0  0
  1  3  1  0
  1  2  1  0
  1  8  1  0
  1  9  1  0
  2  4  1  0
  2 12  1  0
  2 13  1  0
  3  5  1  0
  3 10  1  0
  3 11  1  0
  4  6  1  0
  4  7  2  0
  5  6  2  0
  5 14  1  0
  6 15  1  0
  7 16  1  0
  7 17  1  0
M  END
