
     RDKit          3D

 20 21  0  0  0  0  0  0  0  0999 V2000
   -2.1471   -0.9204    0.1027 C   0  0  0  0  0  0  0  0  0  0  0  0
    2.2600    0.9743   -0.1070 C   0  0  0  0  0  0  0  0  0  0  0  0
   -1.5735    0.4519    0.3074 C   0  0  0  0  0  0  0  0  0  0  0  0
   -0.1350    0.3746    0.0956 C   0  0  0  0  0  0  0  0  0  0  0  0
    0.1699   -0.9901   -0.2271 C   0  0  0  0  0  0  0  0  0  0  0  0
   -0.9262   -1.7371   -0.2318 C   0  0  0  0  0  0  0  0  0  0  0  0
    0.8059    1.3187    0.1620 C   0  0  0  0  0  0  0  0  0  0  0  0
    2.5198   -0.4897   -0.4440 C   0  0  0  0  0  0  0  0  0  0  0  0
    1.5445   -1.4078   -0.5004 C   0  0  0  0  0  0  0  0  0  0  0  0
   -2.2775    1.5365    0.6267 C   0  0  0  0  0  0  0  0  0  0  0  0
   -2.8638   -0.9279   -0.7457 H   0  0  0  0  0  0  0  0  0  0  0  0
   -2.6213   -1.2948    1.0346 H   0  0  0  0  0  0  0  0  0  0  0  0
    2.6184    1.5986   -0.9520 H   0  0  0  0  0  0  0  0  0  0  0  0
    2.8558    1.2394    0.7913 H   0  0  0  0  0  0  0  0  0  0  0  0
   -0.9373   -2.7975   -0.4487 H   0  0  0  0  0  0  0  0  0  0  0  0
    0.5447    2.3393    0.4078 H   0  0  0  0  0  0  0  0  0  0  0  0
    3.5383   -0.7963   -0.6459 H   0  0  0  0  0  0  0  0  0  0  0  0
    1.7717   -2.4382   -0.7436 H   0  0  0  0  0  0  0  0  0  0  0  0
   -3.3497    1.4699    0.7590 H   0  0  0  0  0  0  0  0  0  0  0  0
   -1.7973    2.4965    0.7591 H   0  0  0  0  0  0  0  0  0  0  0  0
  1  3  1  0
  1  6  1  0
  1 11  1  0
  1 12  1  0
  2  7  1  0
  2  8  1  0
  2 13  1  0
  2 14  1  0
  3  4  1  0
  3 10  2  0
  4  5  1  0
  4  7  2  0
  5  6  2  0
  5  9  1  0
  6 15  1  0
  7 16  1  0
  8  9  2  0
  8 17  1  0
  9 18  1  0
 10 19  1  0
 10 20  1  0
M  END
