
     RDKit          3D

 20 21  0  0  0  0  0  0  0  0999 V2000
   -2.1170   -0.8967    0.0964 C   0  0  0  0  0  0  0  0  0  0  0  0
    2.2610    0.9749   -0.1210 C   0  0  0  0  0  0  0  0  0  0  0  0
   -1.5676    0.4549    0.2973 C   0  0  0  0  0  0  0  0  0  0  0  0
   -0.1282    0.3500    0.0787 C   0  0  0  0  0  0  0  0  0  0  0  0
    0.1683   -1.0397   -0.2459 C   0  0  0  0  0  0  0  0  0  0  0  0
   -0.9444   -1.7347   -0.2354 C   0  0  0  0  0  0  0  0  0  0  0  0
    0.8275    1.2294    0.1274 C   0  0  0  0  0  0  0  0  0  0  0  0
    2.4884   -0.4335   -0.4399 C   0  0  0  0  0  0  0  0  0  0  0  0
    1.5644   -1.3727   -0.5052 C   0  0  0  0  0  0  0  0  0  0  0  0
   -2.2479    1.5391    0.6120 C   0  0  0  0  0  0  0  0  0  0  0  0
   -2.8977   -0.9655   -0.6775 H   0  0  0  0  0  0  0  0  0  0  0  0
   -2.6053   -1.2631    1.0424 H   0  0  0  0  0  0  0  0  0  0  0  0
    2.6329    1.6725   -0.8951 H   0  0  0  0  0  0  0  0  0  0  0  0
    2.7866    1.2270    0.8453 H   0  0  0  0  0  0  0  0  0  0  0  0
   -1.0407   -2.8041   -0.4407 H   0  0  0  0  0  0  0  0  0  0  0  0
    0.5531    2.2557    0.3747 H   0  0  0  0  0  0  0  0  0  0  0  0
    3.5131   -0.7643   -0.6479 H   0  0  0  0  0  0  0  0  0  0  0  0
    1.8273   -2.3980   -0.7507 H   0  0  0  0  0  0  0  0  0  0  0  0
   -3.3163    1.4768    0.7457 H   0  0  0  0  0  0  0  0  0  0  0  0
   -1.7577    2.4921    0.7396 H   0  0  0  0  0  0  0  0  0  0  0  0
  1  3  1  0
  1  6  1  0
  1 11  1  0
  1 12  1  0
  2  7  1  0
  2  8  1  0
  2 13  1  0
  2 14  1  0
  3  4  1  0
  3 10  2  0
  4  5  1  0
  4  7  2  0
  5  6  2  0
  5  9  1  0
  6 15  1  0
  7 16  1  0
  8  9  2  0
  8 17  1  0
  9 18  1  0
 10 19  1  0
 10 20  1  0
M  END
