
     RDKit          3D

 20 20  0  0  0  0  0  0  0  0999 V2000
    0.1004   -0.7287    0.0672 C   0  0  0  0  0  0  0  0  0  0  0  0
    0.6624   -2.0060    0.1446 C   0  0  0  0  0  0  0  0  0  0  0  0
   -1.2707   -0.6735    0.2032 C   0  0  0  0  0  0  0  0  0  0  0  0
    0.9288    0.4452   -0.1430 C   0  0  0  0  0  0  0  0  0  0  0  0
   -0.1038   -3.1339    0.3437 C   0  0  0  0  0  0  0  0  0  0  0  0
   -2.0612   -1.7858    0.4031 C   0  0  0  0  0  0  0  0  0  0  0  0
   -1.4613   -3.0190    0.4720 C   0  0  0  0  0  0  0  0  0  0  0  0
    0.4731    1.6761   -0.2273 C   0  0  0  0  0  0  0  0  0  0  0  0
    1.3646    2.8207   -0.4409 C   0  0  0  0  0  0  0  0  0  0  0  0
    0.9083    4.0585   -0.5257 C   0  0  0  0  0  0  0  0  0  0  0  0
    1.9966    0.2990   -0.2368 H   0  0  0  0  0  0  0  0  0  0  0  0
    1.7397   -2.1082    0.0442 H   0  0  0  0  0  0  0  0  0  0  0  0
   -1.7847    0.2770    0.1557 H   0  0  0  0  0  0  0  0  0  0  0  0
    0.3964   -4.0903    0.3934 H   0  0  0  0  0  0  0  0  0  0  0  0
   -3.1187   -1.6896    0.5025 H   0  0  0  0  0  0  0  0  0  0  0  0
   -2.0903   -3.8970    0.6303 H   0  0  0  0  0  0  0  0  0  0  0  0
   -0.5854    1.8900   -0.1414 H   0  0  0  0  0  0  0  0  0  0  0  0
    2.4415    2.6058   -0.5291 H   0  0  0  0  0  0  0  0  0  0  0  0
   -0.1499    4.2047   -0.4324 H   0  0  0  0  0  0  0  0  0  0  0  0
    1.6142    4.8553   -0.6833 H   0  0  0  0  0  0  0  0  0  0  0  0
  1  2  2  0
  1  3  1  0
  1  4  1  0
  2  5  1  0
  2 12  1  0
  3  6  2  0
  3 13  1  0
  4  8  2  3
  4 11  1  0
  5  7  2  0
  5 14  1  0
  6  7  1  0
  6 15  1  0
  7 16  1  0
  8  9  1  0
  8 17  1  0
  9 10  2  0
  9 18  1  0
 10 19  1  0
 10 20  1  0
M  END
