
     RDKit          3D

 17 18  0  0  0  0  0  0  0  0999 V2000
   -1.6012   -1.0680   -0.1034 C   0  0  0  0  0  0  0  0  0  0  0  0
   -0.1974   -0.5849   -0.0246 C   0  0  0  0  0  0  0  0  0  0  0  0
   -0.1524    0.7933   -0.0101 C   0  0  0  0  0  0  0  0  0  0  0  0
   -2.3523    0.2088   -0.1321 C   0  0  0  0  0  0  0  0  0  0  0  0
   -1.5361    1.2474   -0.0797 C   0  0  0  0  0  0  0  0  0  0  0  0
    0.9594   -1.3552    0.0302 C   0  0  0  0  0  0  0  0  0  0  0  0
    1.0639    1.4406    0.0602 C   0  0  0  0  0  0  0  0  0  0  0  0
    2.2206    0.6900    0.1151 C   0  0  0  0  0  0  0  0  0  0  0  0
    2.1696   -0.7086    0.1002 C   0  0  0  0  0  0  0  0  0  0  0  0
   -1.7942   -1.7306   -0.9606 H   0  0  0  0  0  0  0  0  0  0  0  0
   -1.8268   -1.5352    0.8735 H   0  0  0  0  0  0  0  0  0  0  0  0
   -3.4295    0.2540   -0.1890 H   0  0  0  0  0  0  0  0  0  0  0  0
    1.0809    2.5192    0.0706 H   0  0  0  0  0  0  0  0  0  0  0  0
   -1.8130    2.3119   -0.0850 H   0  0  0  0  0  0  0  0  0  0  0  0
    3.1870    1.2089    0.1711 H   0  0  0  0  0  0  0  0  0  0  0  0
    3.1061   -1.2573    0.1452 H   0  0  0  0  0  0  0  0  0  0  0  0
    0.9151   -2.4343    0.0184 H   0  0  0  0  0  0  0  0  0  0  0  0
  1  2  1  0
  1  4  1  0
  1 10  1  0
  1 11  1  0
  2  3  2  0
  2  6  1  0
  3  5  1  0
  3  7  1  0
  4  5  2  0
  4 12  1  0
  5 14  1  0
  6  9  2  0
  6 17  1  0
  7  8  2  0
  7 13  1  0
  8  9  1  0
  8 15  1  0
  9 16  1  0
M  END
