
     RDKit          3D

 34 34  0  0  0  0  0  0  0  0999 V2000
    2.8407   -0.0397    0.8309 C   0  0  0  0  0  0  0  0  0  0  0  0
    0.9697   -1.1029    0.6163 C   0  0  0  0  0  0  0  0  0  0  0  0
    1.3664    0.3659    0.7758 C   0  0  0  0  0  0  0  0  0  0  0  0
    2.4436   -1.5066    0.6601 C   0  0  0  0  0  0  0  0  0  0  0  0
    3.6884    0.4999   -0.3344 C   0  0  0  0  0  0  0  0  0  0  0  0
   -3.5127    0.6823    0.5258 C   0  0  0  0  0  0  0  0  0  0  0  0
    0.2881   -1.4268   -0.7254 C   0  0  0  0  0  0  0  0  0  0  0  0
   -3.4758   -0.7210   -0.0906 C   0  0  0  0  0  0  0  0  0  0  0  0
    4.0028    1.9823   -0.1527 C   0  0  0  0  0  0  0  0  0  0  0  0
   -4.9249    1.2593    0.4962 C   0  0  0  0  0  0  0  0  0  0  0  0
   -1.0947   -0.8397   -0.7889 C   0  0  0  0  0  0  0  0  0  0  0  0
   -2.0923   -1.3057   -0.0223 C   0  0  0  0  0  0  0  0  0  0  0  0
    3.2992    0.1518    1.8272 H   0  0  0  0  0  0  0  0  0  0  0  0
    0.4088   -1.4895    1.4966 H   0  0  0  0  0  0  0  0  0  0  0  0
    3.1644    0.3513   -1.3043 H   0  0  0  0  0  0  0  0  0  0  0  0
    4.6462   -0.0627   -0.3724 H   0  0  0  0  0  0  0  0  0  0  0  0
    1.0136    0.7908    1.7407 H   0  0  0  0  0  0  0  0  0  0  0  0
    1.1026    1.0005   -0.0995 H   0  0  0  0  0  0  0  0  0  0  0  0
   -2.8375    1.3623   -0.0379 H   0  0  0  0  0  0  0  0  0  0  0  0
   -3.1639    0.6364    1.5808 H   0  0  0  0  0  0  0  0  0  0  0  0
    2.6841   -2.1120    1.5613 H   0  0  0  0  0  0  0  0  0  0  0  0
    2.8141   -1.9688   -0.2826 H   0  0  0  0  0  0  0  0  0  0  0  0
    0.8887   -1.0207   -1.5688 H   0  0  0  0  0  0  0  0  0  0  0  0
    0.2275   -2.5292   -0.8542 H   0  0  0  0  0  0  0  0  0  0  0  0
   -3.8134   -0.6863   -1.1497 H   0  0  0  0  0  0  0  0  0  0  0  0
   -4.1681   -1.3856    0.4706 H   0  0  0  0  0  0  0  0  0  0  0  0
    3.0671    2.5800   -0.1383 H   0  0  0  0  0  0  0  0  0  0  0  0
    4.5560    2.1452    0.7967 H   0  0  0  0  0  0  0  0  0  0  0  0
    4.6339    2.3338   -0.9959 H   0  0  0  0  0  0  0  0  0  0  0  0
   -5.2881    1.3360   -0.5508 H   0  0  0  0  0  0  0  0  0  0  0  0
   -5.6174    0.6152    1.0789 H   0  0  0  0  0  0  0  0  0  0  0  0
   -4.9212    2.2744    0.9462 H   0  0  0  0  0  0  0  0  0  0  0  0
   -1.2828   -0.0306   -1.4895 H   0  0  0  0  0  0  0  0  0  0  0  0
   -1.9132   -2.1396    0.6511 H   0  0  0  0  0  0  0  0  0  0  0  0
  1  5  1  0
  1 13  1  0
  1  4  1  0
  1  3  1  0
  2  3  1  0
  2  4  1  0
  2 14  1  0
  2  7  1  0
  3 17  1  0
  3 18  1  0
  4 21  1  0
  4 22  1  0
  5 15  1  0
  5 16  1  0
  5  9  1  0
  6  8  1  0
  6 19  1  0
  6 20  1  0
  6 10  1  0
  7 11  1  0
  7 23  1  0
  7 24  1  0
  8 25  1  0
  8 12  1  0
  8 26  1  0
  9 27  1  0
  9 28  1  0
  9 29  1  0
 10 30  1  0
 10 31  1  0
 10 32  1  0
 11 12  2  3
 11 33  1  0
 12 34  1  0
M  END
