
     RDKit          3D

 20 21  0  0  0  0  0  0  0  0999 V2000
   -1.0143   -0.9946   -0.4802 C   0  0  0  0  0  0  0  0  0  0  0  0
   -3.1684    0.4081    0.1740 C   0  0  0  0  0  0  0  0  0  0  0  0
   -1.6875    0.2249    0.0963 C   0  0  0  0  0  0  0  0  0  0  0  0
    0.4182   -0.6295   -0.2971 C   0  0  0  0  0  0  0  0  0  0  0  0
    0.5215    0.6072    0.2925 C   0  0  0  0  0  0  0  0  0  0  0  0
   -0.8082    1.1272    0.5317 C   0  0  0  0  0  0  0  0  0  0  0  0
    1.5551   -1.3629   -0.6391 C   0  0  0  0  0  0  0  0  0  0  0  0
    1.7594    1.1834    0.5749 C   0  0  0  0  0  0  0  0  0  0  0  0
    2.9182    0.4631    0.2393 C   0  0  0  0  0  0  0  0  0  0  0  0
    2.8164   -0.8062   -0.3659 C   0  0  0  0  0  0  0  0  0  0  0  0
   -1.2707   -1.9036    0.1041 H   0  0  0  0  0  0  0  0  0  0  0  0
   -1.2600   -1.1125   -1.5569 H   0  0  0  0  0  0  0  0  0  0  0  0
   -3.4762    0.5306    1.2336 H   0  0  0  0  0  0  0  0  0  0  0  0
   -3.6873   -0.4767   -0.2508 H   0  0  0  0  0  0  0  0  0  0  0  0
   -3.4657    1.3095   -0.4019 H   0  0  0  0  0  0  0  0  0  0  0  0
   -1.0524    2.0800    0.9839 H   0  0  0  0  0  0  0  0  0  0  0  0
    1.8269    2.1585    1.0398 H   0  0  0  0  0  0  0  0  0  0  0  0
    3.8932    0.8848    0.4465 H   0  0  0  0  0  0  0  0  0  0  0  0
    1.4682   -2.3366   -1.1034 H   0  0  0  0  0  0  0  0  0  0  0  0
    3.7137   -1.3547   -0.6213 H   0  0  0  0  0  0  0  0  0  0  0  0
  1  3  1  0
  1  4  1  0
  1 11  1  0
  1 12  1  0
  2  3  1  0
  2 13  1  0
  2 14  1  0
  2 15  1  0
  3  6  2  0
  4  5  2  0
  4  7  1  0
  5  6  1  0
  5  8  1  0
  6 16  1  0
  7 10  2  0
  7 19  1  0
  8  9  2  0
  8 17  1  0
  9 10  1  0
  9 18  1  0
 10 20  1  0
M  END
