
     RDKit          3D

 14 14  0  0  0  0  0  0  0  0999 V2000
   -0.0485   -0.8749   -0.6841 C   0  0  0  0  0  0  0  0  0  0  0  0
   -1.2044   -0.8065    0.2906 C   0  0  0  0  0  0  0  0  0  0  0  0
    0.7607    0.2565   -0.1396 C   0  0  0  0  0  0  0  0  0  0  0  0
   -1.3526    0.6586    0.4500 C   0  0  0  0  0  0  0  0  0  0  0  0
   -0.2148    1.2861    0.2020 C   0  0  0  0  0  0  0  0  0  0  0  0
    2.0769    0.3147    0.0029 C   0  0  0  0  0  0  0  0  0  0  0  0
    0.4979   -1.8236   -0.6750 H   0  0  0  0  0  0  0  0  0  0  0  0
   -0.4139   -0.5890   -1.6967 H   0  0  0  0  0  0  0  0  0  0  0  0
   -0.8182   -1.2830    1.2361 H   0  0  0  0  0  0  0  0  0  0  0  0
   -2.1197   -1.3033   -0.0688 H   0  0  0  0  0  0  0  0  0  0  0  0
   -2.2885    1.1600    0.7375 H   0  0  0  0  0  0  0  0  0  0  0  0
   -0.0279    2.3541    0.2409 H   0  0  0  0  0  0  0  0  0  0  0  0
    2.6428   -0.5564   -0.3095 H   0  0  0  0  0  0  0  0  0  0  0  0
    2.5103    1.2069    0.4138 H   0  0  0  0  0  0  0  0  0  0  0  0
  1  2  1  0
  1  3  1  0
  1  7  1  0
  1  8  1  0
  2  4  1  0
  2  9  1  0
  2 10  1  0
  3  5  1  0
  3  6  2  0
  4  5  2  0
  4 11  1  0
  5 12  1  0
  6 13  1  0
  6 14  1  0
M  END
