
     RDKit          3D

 19 19  0  0  0  0  0  0  0  0999 V2000
    1.0286    0.3771    0.1547 C   0  0  0  0  0  0  0  0  0  0  0  0
   -0.1264    0.3614   -0.8347 C   0  0  0  0  0  0  0  0  0  0  0  0
    0.7751   -1.0216    0.7280 C   0  0  0  0  0  0  0  0  0  0  0  0
    2.3549    0.5019   -0.5032 C   0  0  0  0  0  0  0  0  0  0  0  0
   -2.6661    0.2995   -0.0335 C   0  0  0  0  0  0  0  0  0  0  0  0
   -1.2339   -0.0874    0.0692 C   0  0  0  0  0  0  0  0  0  0  0  0
   -0.6948   -0.8951    0.9782 C   0  0  0  0  0  0  0  0  0  0  0  0
    0.8456    1.0911    0.9739 H   0  0  0  0  0  0  0  0  0  0  0  0
    0.1341   -0.4123   -1.5898 H   0  0  0  0  0  0  0  0  0  0  0  0
   -0.3238    1.3578   -1.2800 H   0  0  0  0  0  0  0  0  0  0  0  0
    1.3445   -1.2185    1.6339 H   0  0  0  0  0  0  0  0  0  0  0  0
    0.9466   -1.7308   -0.0793 H   0  0  0  0  0  0  0  0  0  0  0  0
    3.0971    0.6759    0.3128 H   0  0  0  0  0  0  0  0  0  0  0  0
    2.5676   -0.4186   -1.0691 H   0  0  0  0  0  0  0  0  0  0  0  0
    2.3478    1.3975   -1.1441 H   0  0  0  0  0  0  0  0  0  0  0  0
   -2.9834    0.5461   -1.0609 H   0  0  0  0  0  0  0  0  0  0  0  0
   -3.2664   -0.5740    0.2920 H   0  0  0  0  0  0  0  0  0  0  0  0
   -2.8727    1.1214    0.6836 H   0  0  0  0  0  0  0  0  0  0  0  0
   -1.2744   -1.3712    1.7683 H   0  0  0  0  0  0  0  0  0  0  0  0
  1  2  1  0
  1  3  1  0
  1  4  1  0
  1  8  1  0
  2  6  1  0
  2  9  1  0
  2 10  1  0
  3  7  1  0
  3 11  1  0
  3 12  1  0
  4 13  1  0
  4 14  1  0
  4 15  1  0
  5  6  1  0
  5 16  1  0
  5 17  1  0
  5 18  1  0
  6  7  2  0
  7 19  1  0
M  END
