
     RDKit          3D

 34 34  0  0  0  0  0  0  0  0999 V2000
   -2.9225    0.4999   -0.7138 C   0  0  0  0  0  0  0  0  0  0  0  0
   -0.9585    0.4654   -1.6200 C   0  0  0  0  0  0  0  0  0  0  0  0
   -1.9470   -0.5991   -1.1397 C   0  0  0  0  0  0  0  0  0  0  0  0
   -1.9291    1.5632   -1.1834 C   0  0  0  0  0  0  0  0  0  0  0  0
    0.3711    0.4868   -0.8456 C   0  0  0  0  0  0  0  0  0  0  0  0
   -3.1958    0.5506    0.7997 C   0  0  0  0  0  0  0  0  0  0  0  0
    1.2780   -0.6750   -1.2702 C   0  0  0  0  0  0  0  0  0  0  0  0
    3.9986   -0.8962    1.4892 C   0  0  0  0  0  0  0  0  0  0  0  0
   -4.1384   -0.5693    1.2318 C   0  0  0  0  0  0  0  0  0  0  0  0
    4.5093    0.5312    1.6645 C   0  0  0  0  0  0  0  0  0  0  0  0
    2.6814   -0.9199    0.7650 C   0  0  0  0  0  0  0  0  0  0  0  0
    2.5927   -0.6296   -0.5421 C   0  0  0  0  0  0  0  0  0  0  0  0
   -3.8535    0.5045   -1.3242 H   0  0  0  0  0  0  0  0  0  0  0  0
   -0.8187    0.4512   -2.7244 H   0  0  0  0  0  0  0  0  0  0  0  0
   -3.6684    1.5257    1.0468 H   0  0  0  0  0  0  0  0  0  0  0  0
   -2.2462    0.4741    1.3741 H   0  0  0  0  0  0  0  0  0  0  0  0
   -2.3454   -1.2082   -1.9801 H   0  0  0  0  0  0  0  0  0  0  0  0
   -1.5687   -1.2188   -0.2964 H   0  0  0  0  0  0  0  0  0  0  0  0
    0.1779    0.4388    0.2492 H   0  0  0  0  0  0  0  0  0  0  0  0
    0.8901    1.4467   -1.0605 H   0  0  0  0  0  0  0  0  0  0  0  0
   -2.3176    2.1451   -2.0476 H   0  0  0  0  0  0  0  0  0  0  0  0
   -1.5404    2.2110   -0.3655 H   0  0  0  0  0  0  0  0  0  0  0  0
    4.7478   -1.5001    0.9326 H   0  0  0  0  0  0  0  0  0  0  0  0
    3.8660   -1.3533    2.4932 H   0  0  0  0  0  0  0  0  0  0  0  0
    0.7805   -1.6497   -1.0744 H   0  0  0  0  0  0  0  0  0  0  0  0
    1.4752   -0.6035   -2.3618 H   0  0  0  0  0  0  0  0  0  0  0  0
   -5.1055   -0.4889    0.6912 H   0  0  0  0  0  0  0  0  0  0  0  0
   -4.3337   -0.4900    2.3219 H   0  0  0  0  0  0  0  0  0  0  0  0
   -3.6851   -1.5616    1.0250 H   0  0  0  0  0  0  0  0  0  0  0  0
    3.7653    1.1403    2.2212 H   0  0  0  0  0  0  0  0  0  0  0  0
    5.4592    0.5173    2.2392 H   0  0  0  0  0  0  0  0  0  0  0  0
    4.7018    1.0007    0.6764 H   0  0  0  0  0  0  0  0  0  0  0  0
    1.7905   -1.2076    1.3169 H   0  0  0  0  0  0  0  0  0  0  0  0
    3.4894   -0.3816   -1.1037 H   0  0  0  0  0  0  0  0  0  0  0  0
  1  6  1  0
  1 13  1  0
  1  4  1  0
  1  3  1  0
  2  3  1  0
  2  4  1  0
  2 14  1  0
  2  5  1  0
  3 17  1  0
  3 18  1  0
  4 21  1  0
  4 22  1  0
  5  7  1  0
  5 19  1  0
  5 20  1  0
  6 15  1  0
  6 16  1  0
  6  9  1  0
  7 12  1  0
  7 25  1  0
  7 26  1  0
  8 11  1  0
  8 23  1  0
  8 24  1  0
  8 10  1  0
  9 27  1  0
  9 28  1  0
  9 29  1  0
 10 30  1  0
 10 31  1  0
 10 32  1  0
 11 33  1  0
 11 12  2  3
 12 34  1  0
M  END
