
     RDKit          3D

 32 32  0  0  0  0  0  0  0  0999 V2000
   -0.8001   -0.2590   -1.0801 C   0  0  0  0  0  0  0  0  0  0  0  0
   -0.9725    0.9047   -0.0877 C   0  0  0  0  0  0  0  0  0  0  0  0
    0.6422   -0.8151   -1.1435 C   0  0  0  0  0  0  0  0  0  0  0  0
   -1.3413    1.8326   -1.2441 C   0  0  0  0  0  0  0  0  0  0  0  0
   -1.1547    0.6882   -2.2306 C   0  0  0  0  0  0  0  0  0  0  0  0
   -2.1205    0.7161    0.9198 C   0  0  0  0  0  0  0  0  0  0  0  0
    0.7963   -1.8120   -2.2984 C   0  0  0  0  0  0  0  0  0  0  0  0
   -1.7447   -0.2748    2.0179 C   0  0  0  0  0  0  0  0  0  0  0  0
    2.6814    0.9548    2.1361 C   0  0  0  0  0  0  0  0  0  0  0  0
    0.9768   -1.5081    0.1498 C   0  0  0  0  0  0  0  0  0  0  0  0
    2.7331   -0.4966    1.7927 C   0  0  0  0  0  0  0  0  0  0  0  0
    1.8600   -1.0099    0.9714 C   0  0  0  0  0  0  0  0  0  0  0  0
   -0.0262    1.2294    0.4014 H   0  0  0  0  0  0  0  0  0  0  0  0
   -1.5638   -1.0617   -0.9603 H   0  0  0  0  0  0  0  0  0  0  0  0
    1.3536    0.0258   -1.3189 H   0  0  0  0  0  0  0  0  0  0  0  0
   -3.0423    0.3635    0.4063 H   0  0  0  0  0  0  0  0  0  0  0  0
   -2.3446    1.6971    1.3919 H   0  0  0  0  0  0  0  0  0  0  0  0
   -2.3914    2.1998   -1.2192 H   0  0  0  0  0  0  0  0  0  0  0  0
   -0.5934    2.6425   -1.3909 H   0  0  0  0  0  0  0  0  0  0  0  0
   -2.1059    0.4060   -2.7320 H   0  0  0  0  0  0  0  0  0  0  0  0
   -0.3214    0.8855   -2.9400 H   0  0  0  0  0  0  0  0  0  0  0  0
   -2.5576   -0.3169    2.7734 H   0  0  0  0  0  0  0  0  0  0  0  0
   -0.8067    0.0413    2.5219 H   0  0  0  0  0  0  0  0  0  0  0  0
   -1.6098   -1.2908    1.5922 H   0  0  0  0  0  0  0  0  0  0  0  0
    0.6018   -1.3164   -3.2723 H   0  0  0  0  0  0  0  0  0  0  0  0
    1.8333   -2.2108   -2.3202 H   0  0  0  0  0  0  0  0  0  0  0  0
    0.0881   -2.6613   -2.1830 H   0  0  0  0  0  0  0  0  0  0  0  0
    1.7067    1.1986    2.6094 H   0  0  0  0  0  0  0  0  0  0  0  0
    3.5001    1.1992    2.8456 H   0  0  0  0  0  0  0  0  0  0  0  0
    2.8078    1.5657    1.2166 H   0  0  0  0  0  0  0  0  0  0  0  0
    3.4953   -1.1299    2.2263 H   0  0  0  0  0  0  0  0  0  0  0  0
    0.4204   -2.3876    0.4485 H   0  0  0  0  0  0  0  0  0  0  0  0
  1  2  1  0
  1 14  1  0
  1  5  1  0
  1  3  1  0
  2  6  1  0
  2 13  1  0
  2  4  1  0
  3  7  1  0
  3 15  1  0
  3 10  1  0
  4  5  1  0
  4 18  1  0
  4 19  1  0
  5 20  1  0
  5 21  1  0
  6 16  1  0
  6 17  1  0
  6  8  1  0
  7 26  1  0
  7 27  1  0
  7 25  1  0
  8 22  1  0
  8 23  1  0
  8 24  1  0
  9 11  1  0
  9 28  1  0
  9 29  1  0
  9 30  1  0
 10 12  2  0
 10 32  1  0
 11 31  1  0
 11 12  2  0
M  END
