
     RDKit          3D

 34 34  0  0  0  0  0  0  0  0999 V2000
   -0.9243   -0.8965   -0.9872 C   0  0  0  0  0  0  0  0  0  0  0  0
   -2.6292    0.2774   -0.3428 C   0  0  0  0  0  0  0  0  0  0  0  0
    0.4481   -1.0067   -0.2757 C   0  0  0  0  0  0  0  0  0  0  0  0
   -2.1347   -1.1438   -0.0799 C   0  0  0  0  0  0  0  0  0  0  0  0
   -1.4046    0.5403   -1.2192 C   0  0  0  0  0  0  0  0  0  0  0  0
   -2.6962    1.1438    0.9275 C   0  0  0  0  0  0  0  0  0  0  0  0
    1.5761   -0.5057   -1.2095 C   0  0  0  0  0  0  0  0  0  0  0  0
    0.7129   -2.4643    0.1426 C   0  0  0  0  0  0  0  0  0  0  0  0
   -3.1273    2.5717    0.6041 C   0  0  0  0  0  0  0  0  0  0  0  0
    4.4578    0.6229    1.1170 C   0  0  0  0  0  0  0  0  0  0  0  0
    2.9020   -0.4060   -0.5022 C   0  0  0  0  0  0  0  0  0  0  0  0
    3.1318    0.5306    0.4285 C   0  0  0  0  0  0  0  0  0  0  0  0
   -3.5787    0.2840   -0.9242 H   0  0  0  0  0  0  0  0  0  0  0  0
   -0.9750   -1.5043   -1.9191 H   0  0  0  0  0  0  0  0  0  0  0  0
    0.4278   -0.3783    0.6431 H   0  0  0  0  0  0  0  0  0  0  0  0
   -3.4381    0.6999    1.6260 H   0  0  0  0  0  0  0  0  0  0  0  0
   -1.7100    1.1648    1.4420 H   0  0  0  0  0  0  0  0  0  0  0  0
   -2.8216   -1.9115   -0.4981 H   0  0  0  0  0  0  0  0  0  0  0  0
   -1.8760   -1.3282    0.9863 H   0  0  0  0  0  0  0  0  0  0  0  0
   -1.6805    0.7244   -2.2803 H   0  0  0  0  0  0  0  0  0  0  0  0
   -0.7244    1.3176   -0.8060 H   0  0  0  0  0  0  0  0  0  0  0  0
    1.6797   -1.2001   -2.0718 H   0  0  0  0  0  0  0  0  0  0  0  0
    1.3296    0.4937   -1.6269 H   0  0  0  0  0  0  0  0  0  0  0  0
   -4.1263    2.5718    0.1182 H   0  0  0  0  0  0  0  0  0  0  0  0
   -3.1889    3.1622    1.5423 H   0  0  0  0  0  0  0  0  0  0  0  0
   -2.3918    3.0571   -0.0715 H   0  0  0  0  0  0  0  0  0  0  0  0
   -0.0748   -2.8276    0.8342 H   0  0  0  0  0  0  0  0  0  0  0  0
    0.7364   -3.1286   -0.7478 H   0  0  0  0  0  0  0  0  0  0  0  0
    1.6835   -2.5462    0.6755 H   0  0  0  0  0  0  0  0  0  0  0  0
    5.2595    0.8107    0.3718 H   0  0  0  0  0  0  0  0  0  0  0  0
    4.4433    1.4588    1.8473 H   0  0  0  0  0  0  0  0  0  0  0  0
    4.6699   -0.3232    1.6583 H   0  0  0  0  0  0  0  0  0  0  0  0
    2.3517    1.2389    0.6943 H   0  0  0  0  0  0  0  0  0  0  0  0
    3.6921   -1.0994   -0.7781 H   0  0  0  0  0  0  0  0  0  0  0  0
  1  4  1  0
  1  5  1  0
  1 14  1  0
  1  3  1  0
  2  6  1  0
  2 13  1  0
  2  5  1  0
  2  4  1  0
  3  8  1  0
  3 15  1  0
  3  7  1  0
  4 18  1  0
  4 19  1  0
  5 20  1  0
  5 21  1  0
  6 16  1  0
  6 17  1  0
  6  9  1  0
  7 22  1  0
  7 11  1  0
  7 23  1  0
  8 27  1  0
  8 28  1  0
  8 29  1  0
  9 24  1  0
  9 25  1  0
  9 26  1  0
 10 12  1  0
 10 31  1  0
 10 32  1  0
 10 30  1  0
 11 12  2  3
 11 34  1  0
 12 33  1  0
M  END
