
     RDKit          3D

 17 17  0  0  0  0  0  0  0  0999 V2000
    0.6401   -0.0142    0.5846 C   0  0  0  0  0  0  0  0  0  0  0  0
    0.0751   -1.2309   -0.0216 C   0  0  0  0  0  0  0  0  0  0  0  0
    2.0365    0.3174    0.0591 C   0  0  0  0  0  0  0  0  0  0  0  0
   -0.2343    1.1437    0.4906 C   0  0  0  0  0  0  0  0  0  0  0  0
   -1.2449   -1.0698   -0.6039 C   0  0  0  0  0  0  0  0  0  0  0  0
   -1.4261    1.2225   -0.0536 C   0  0  0  0  0  0  0  0  0  0  0  0
   -1.9790    0.0175   -0.6507 C   0  0  0  0  0  0  0  0  0  0  0  0
    0.8185   -0.1942    1.6897 H   0  0  0  0  0  0  0  0  0  0  0  0
   -0.0011   -2.0278    0.7808 H   0  0  0  0  0  0  0  0  0  0  0  0
    0.7435   -1.6184   -0.8459 H   0  0  0  0  0  0  0  0  0  0  0  0
    2.4024    1.1372    0.7162 H   0  0  0  0  0  0  0  0  0  0  0  0
    2.6730   -0.5780    0.1911 H   0  0  0  0  0  0  0  0  0  0  0  0
    2.0148    0.6006   -1.0147 H   0  0  0  0  0  0  0  0  0  0  0  0
    0.1383    2.0845    0.9287 H   0  0  0  0  0  0  0  0  0  0  0  0
   -1.7025   -1.9630   -1.0691 H   0  0  0  0  0  0  0  0  0  0  0  0
   -1.9877    2.1614   -0.0597 H   0  0  0  0  0  0  0  0  0  0  0  0
   -2.9666    0.0115   -1.1215 H   0  0  0  0  0  0  0  0  0  0  0  0
  1  3  1  0
  1  2  1  0
  1  4  1  0
  1  8  1  0
  2  5  1  0
  2  9  1  0
  2 10  1  0
  3 11  1  0
  3 12  1  0
  3 13  1  0
  4  6  2  0
  4 14  1  0
  5  7  2  0
  5 15  1  0
  6  7  1  0
  6 16  1  0
  7 17  1  0
M  END
