
     RDKit          3D

 11 11  0  0  0  0  0  0  0  0999 V2000
   -1.1151    0.2181    0.0516 C   0  0  0  0  0  0  0  0  0  0  0  0
   -0.4121   -1.0888   -0.1128 C   0  0  0  0  0  0  0  0  0  0  0  0
    0.0393    1.1618    0.1300 C   0  0  0  0  0  0  0  0  0  0  0  0
    0.8982   -0.9107   -0.1244 C   0  0  0  0  0  0  0  0  0  0  0  0
    1.1820    0.5038    0.0282 C   0  0  0  0  0  0  0  0  0  0  0  0
   -1.7047    0.2349    0.9923 H   0  0  0  0  0  0  0  0  0  0  0  0
   -1.7488    0.4406   -0.8325 H   0  0  0  0  0  0  0  0  0  0  0  0
   -0.8977   -2.0509   -0.2095 H   0  0  0  0  0  0  0  0  0  0  0  0
   -0.0381    2.2340    0.2528 H   0  0  0  0  0  0  0  0  0  0  0  0
    1.6323   -1.6982   -0.2309 H   0  0  0  0  0  0  0  0  0  0  0  0
    2.1646    0.9554    0.0553 H   0  0  0  0  0  0  0  0  0  0  0  0
  1  2  1  0
  1  3  1  0
  1  6  1  0
  1  7  1  0
  2  4  2  0
  2  8  1  0
  3  5  2  0
  3  9  1  0
  4  5  1  0
  4 10  1  0
  5 11  1  0
M  END
