
     RDKit          3D

 34 34  0  0  0  0  0  0  0  0999 V2000
    0.4851   -0.3036   -0.5631 C   0  0  0  0  0  0  0  0  0  0  0  0
    1.2982    0.8729   -0.8903 C   0  0  0  0  0  0  0  0  0  0  0  0
   -0.9372   -0.1648   -0.1442 C   0  0  0  0  0  0  0  0  0  0  0  0
    0.9672    0.6805   -2.3424 C   0  0  0  0  0  0  0  0  0  0  0  0
    0.6472   -0.7616   -2.0034 C   0  0  0  0  0  0  0  0  0  0  0  0
    2.7867    0.6552   -0.6697 C   0  0  0  0  0  0  0  0  0  0  0  0
   -1.5909   -1.5039    0.1464 C   0  0  0  0  0  0  0  0  0  0  0  0
   -1.1886    0.7852    0.9870 C   0  0  0  0  0  0  0  0  0  0  0  0
    3.0679    0.3159    0.7774 C   0  0  0  0  0  0  0  0  0  0  0  0
   -0.9172   -2.2680    1.2431 C   0  0  0  0  0  0  0  0  0  0  0  0
   -2.6201    0.9016    1.3814 C   0  0  0  0  0  0  0  0  0  0  0  0
   -3.2836    2.0729    1.3214 C   0  0  0  0  0  0  0  0  0  0  0  0
    1.0594    1.8490   -0.4548 H   0  0  0  0  0  0  0  0  0  0  0  0
    1.0437   -1.0327    0.0603 H   0  0  0  0  0  0  0  0  0  0  0  0
   -1.4880    0.2539   -1.0164 H   0  0  0  0  0  0  0  0  0  0  0  0
    3.1816   -0.1618   -1.2949 H   0  0  0  0  0  0  0  0  0  0  0  0
    3.3171    1.5839   -0.9662 H   0  0  0  0  0  0  0  0  0  0  0  0
   -2.6495   -1.4225    0.3776 H   0  0  0  0  0  0  0  0  0  0  0  0
   -1.5419   -2.1815   -0.7536 H   0  0  0  0  0  0  0  0  0  0  0  0
    0.0467    1.1940   -2.6635 H   0  0  0  0  0  0  0  0  0  0  0  0
    1.8158    0.7717   -3.0485 H   0  0  0  0  0  0  0  0  0  0  0  0
   -0.3287   -1.1184   -2.4013 H   0  0  0  0  0  0  0  0  0  0  0  0
    1.4509   -1.4792   -2.2056 H   0  0  0  0  0  0  0  0  0  0  0  0
   -0.8507    1.8194    0.7620 H   0  0  0  0  0  0  0  0  0  0  0  0
   -0.6565    0.5215    1.9181 H   0  0  0  0  0  0  0  0  0  0  0  0
    3.7694   -0.5602    0.8627 H   0  0  0  0  0  0  0  0  0  0  0  0
    2.1593    0.0740    1.3615 H   0  0  0  0  0  0  0  0  0  0  0  0
    3.6118    1.1490    1.2891 H   0  0  0  0  0  0  0  0  0  0  0  0
   -0.0200   -2.8245    0.9207 H   0  0  0  0  0  0  0  0  0  0  0  0
   -1.6480   -3.0808    1.5305 H   0  0  0  0  0  0  0  0  0  0  0  0
   -0.8088   -1.6796    2.1611 H   0  0  0  0  0  0  0  0  0  0  0  0
   -3.1367    0.0116    1.7279 H   0  0  0  0  0  0  0  0  0  0  0  0
   -2.7191    2.9296    0.9697 H   0  0  0  0  0  0  0  0  0  0  0  0
   -4.3225    2.1011    1.6198 H   0  0  0  0  0  0  0  0  0  0  0  0
  1  2  1  0
  1 14  1  0
  1  5  1  0
  1  3  1  0
  2  6  1  0
  2 13  1  0
  2  4  1  0
  3  7  1  0
  3 15  1  0
  3  8  1  0
  4  5  1  0
  4 20  1  0
  4 21  1  0
  5 22  1  0
  5 23  1  0
  6 16  1  0
  6 17  1  0
  6  9  1  0
  7 18  1  0
  7 19  1  0
  7 10  1  0
  8 24  1  0
  8 11  1  0
  8 25  1  0
  9 26  1  0
  9 27  1  0
  9 28  1  0
 10 29  1  0
 10 30  1  0
 10 31  1  0
 11 32  1  0
 11 12  2  0
 12 33  1  0
 12 34  1  0
M  END
